<?xml version="1.0" encoding="UTF-8"?>

<!-- generated on Thu Feb 13 14:16:03 2014 by SUMO duarouter Version 0.18.0
<?xml version="1.0" encoding="UTF-8"?>

<configuration xmlns:xsi="http://www.w3.org/2001/XMLSchema-instance" xsi:noNamespaceSchemaLocation="http://sumo.sf.net/xsd/duarouterConfiguration.xsd">

    <input>
        <net-file value="twinT.net.xml"/>
        <trip-files value="experimentos/twinT.p0.7.1.trips.xml"/>
    </input>

    <output>
        <output-file value="experimentos/twinT.p0.7.1.rou.xml"/>
    </output>

    <processing>
        <ignore-errors value="true"/>
    </processing>

    <random_number>
        <random value="true"/>
    </random_number>

</configuration>
-->

<routes xmlns:xsi="http://www.w3.org/2001/XMLSchema-instance" xsi:noNamespaceSchemaLocation="http://sumo.sf.net/xsd/routes_file.xsd">
    <vehicle id="0" depart="0.00">
        <route edges="7:3 3:1 1:0 0:2 2:8"/>
    </vehicle>
    <vehicle id="1" depart="0.70">
        <route edges="9:0 0:2"/>
    </vehicle>
    <vehicle id="2" depart="1.40">
        <route edges="6:5 5:1 1:0 0:2 2:8"/>
    </vehicle>
    <vehicle id="3" depart="2.10">
        <route edges="1:0 0:9 9:10"/>
    </vehicle>
    <vehicle id="4" depart="2.80">
        <route edges="3:1 1:0 0:2 2:8"/>
    </vehicle>
    <vehicle id="5" depart="3.50">
        <route edges="7:3 3:1 1:0"/>
    </vehicle>
    <vehicle id="7" depart="4.90">
        <route edges="10:9 9:0 0:1 1:3"/>
    </vehicle>
    <vehicle id="8" depart="5.60">
        <route edges="0:2 2:8"/>
    </vehicle>
    <vehicle id="9" depart="6.30">
        <route edges="9:0 0:1 1:5 5:6"/>
    </vehicle>
    <vehicle id="10" depart="7.00">
        <route edges="2:0 0:1"/>
    </vehicle>
    <vehicle id="11" depart="7.70">
        <route edges="7:3 3:1"/>
    </vehicle>
    <vehicle id="15" depart="10.50">
        <route edges="8:2 2:0 0:9 9:10"/>
    </vehicle>
    <vehicle id="17" depart="11.90">
        <route edges="7:3 3:1 1:0 0:9"/>
    </vehicle>
    <vehicle id="18" depart="12.60">
        <route edges="1:3"/>
    </vehicle>
    <vehicle id="19" depart="13.30">
        <route edges="7:3 3:1 1:0 0:2"/>
    </vehicle>
    <vehicle id="27" depart="18.90">
        <route edges="7:3 3:1 1:0 0:2 2:8"/>
    </vehicle>
    <vehicle id="28" depart="19.60">
        <route edges="6:5 5:1 1:3"/>
    </vehicle>
    <vehicle id="31" depart="21.70">
        <route edges="0:1 1:3"/>
    </vehicle>
    <vehicle id="35" depart="24.50">
        <route edges="7:3 3:1 1:5 5:6"/>
    </vehicle>
    <vehicle id="40" depart="28.00">
        <route edges="3:1 1:0 0:2 2:8"/>
    </vehicle>
    <vehicle id="41" depart="28.70">
        <route edges="0:2 2:8"/>
    </vehicle>
    <vehicle id="42" depart="29.40">
        <route edges="8:2 2:0 0:1 1:3 3:7"/>
    </vehicle>
    <vehicle id="44" depart="30.80">
        <route edges="2:0 0:1 1:3 3:7"/>
    </vehicle>
    <vehicle id="46" depart="32.20">
        <route edges="0:2 2:8"/>
    </vehicle>
    <vehicle id="48" depart="33.60">
        <route edges="0:2"/>
    </vehicle>
    <vehicle id="50" depart="35.00">
        <route edges="8:2 2:0 0:1 1:3 3:7"/>
    </vehicle>
    <vehicle id="53" depart="37.10">
        <route edges="7:3 3:1 1:0 0:2 2:8"/>
    </vehicle>
    <vehicle id="56" depart="39.20">
        <route edges="7:3 3:1 1:0 0:9 9:10"/>
    </vehicle>
    <vehicle id="59" depart="41.30">
        <route edges="0:2 2:8"/>
    </vehicle>
    <vehicle id="60" depart="42.00">
        <route edges="7:3 3:1 1:0 0:2 2:8"/>
    </vehicle>
    <vehicle id="62" depart="43.40">
        <route edges="8:2 2:0 0:1 1:3 3:7"/>
    </vehicle>
    <vehicle id="63" depart="44.10">
        <route edges="3:1 1:0 0:2"/>
    </vehicle>
    <vehicle id="67" depart="46.90">
        <route edges="0:2 2:8"/>
    </vehicle>
    <vehicle id="69" depart="48.30">
        <route edges="8:2 2:0 0:1 1:3 3:7"/>
    </vehicle>
    <vehicle id="71" depart="49.70">
        <route edges="1:0 0:2"/>
    </vehicle>
    <vehicle id="78" depart="54.60">
        <route edges="10:9 9:0 0:1 1:3 3:7"/>
    </vehicle>
    <vehicle id="80" depart="56.00">
        <route edges="8:2 2:0 0:1"/>
    </vehicle>
    <vehicle id="84" depart="58.80">
        <route edges="8:2 2:0 0:1 1:3 3:7"/>
    </vehicle>
    <vehicle id="85" depart="59.50">
        <route edges="3:1 1:0 0:2 2:8"/>
    </vehicle>
    <vehicle id="86" depart="60.20">
        <route edges="1:3 3:7"/>
    </vehicle>
    <vehicle id="87" depart="60.90">
        <route edges="5:1 1:0 0:2 2:8"/>
    </vehicle>
    <vehicle id="88" depart="61.60">
        <route edges="10:9 9:0 0:2 2:8"/>
    </vehicle>
    <vehicle id="90" depart="63.00">
        <route edges="2:0 0:1 1:5"/>
    </vehicle>
    <vehicle id="92" depart="64.40">
        <route edges="6:5 5:1 1:0 0:2 2:8"/>
    </vehicle>
    <vehicle id="93" depart="65.10">
        <route edges="10:9 9:0 0:1 1:3 3:7"/>
    </vehicle>
    <vehicle id="94" depart="65.80">
        <route edges="9:0 0:1 1:3 3:7"/>
    </vehicle>
    <vehicle id="97" depart="67.90">
        <route edges="1:0 0:2"/>
    </vehicle>
    <vehicle id="99" depart="69.30">
        <route edges="7:3 3:1 1:0 0:2"/>
    </vehicle>
    <vehicle id="102" depart="71.40">
        <route edges="8:2 2:0 0:1 1:3 3:7"/>
    </vehicle>
    <vehicle id="103" depart="72.10">
        <route edges="5:1 1:3"/>
    </vehicle>
    <vehicle id="104" depart="72.80">
        <route edges="6:5 5:1 1:0 0:2"/>
    </vehicle>
    <vehicle id="105" depart="73.50">
        <route edges="7:3 3:1 1:0 0:2 2:8"/>
    </vehicle>
    <vehicle id="111" depart="77.70">
        <route edges="2:0 0:9 9:10"/>
    </vehicle>
    <vehicle id="112" depart="78.40">
        <route edges="7:3 3:1 1:5"/>
    </vehicle>
    <vehicle id="114" depart="79.80">
        <route edges="10:9 9:0 0:1 1:3 3:7"/>
    </vehicle>
    <vehicle id="117" depart="81.90">
        <route edges="7:3 3:1"/>
    </vehicle>
    <vehicle id="120" depart="84.00">
        <route edges="7:3 3:1 1:5 5:6"/>
    </vehicle>
    <vehicle id="121" depart="84.70">
        <route edges="7:3 3:1 1:0 0:2"/>
    </vehicle>
    <vehicle id="122" depart="85.40">
        <route edges="8:2 2:0 0:1 1:3"/>
    </vehicle>
    <vehicle id="126" depart="88.20">
        <route edges="3:1 1:0 0:9 9:10"/>
    </vehicle>
    <vehicle id="127" depart="88.90">
        <route edges="2:0 0:9"/>
    </vehicle>
    <vehicle id="128" depart="89.60">
        <route edges="3:1 1:0 0:2 2:8"/>
    </vehicle>
    <vehicle id="130" depart="91.00">
        <route edges="8:2 2:0 0:1"/>
    </vehicle>
    <vehicle id="131" depart="91.70">
        <route edges="7:3 3:1 1:0 0:9 9:10"/>
    </vehicle>
    <vehicle id="133" depart="93.10">
        <route edges="1:0 0:2 2:8"/>
    </vehicle>
    <vehicle id="136" depart="95.20">
        <route edges="0:2"/>
    </vehicle>
    <vehicle id="137" depart="95.90">
        <route edges="8:2 2:0 0:1 1:3"/>
    </vehicle>
    <vehicle id="139" depart="97.30">
        <route edges="7:3 3:1 1:0 0:2 2:8"/>
    </vehicle>
    <vehicle id="141" depart="98.70">
        <route edges="10:9 9:0 0:1 1:3 3:7"/>
    </vehicle>
    <vehicle id="145" depart="101.50">
        <route edges="7:3 3:1 1:5"/>
    </vehicle>
    <vehicle id="147" depart="102.90">
        <route edges="1:0 0:2"/>
    </vehicle>
    <vehicle id="148" depart="103.60">
        <route edges="8:2 2:0"/>
    </vehicle>
    <vehicle id="150" depart="105.00">
        <route edges="3:1 1:0 0:2"/>
    </vehicle>
    <vehicle id="151" depart="105.70">
        <route edges="8:2 2:0 0:1 1:3 3:7"/>
    </vehicle>
    <vehicle id="155" depart="108.50">
        <route edges="0:2 2:8"/>
    </vehicle>
    <vehicle id="158" depart="110.60">
        <route edges="0:2 2:8"/>
    </vehicle>
    <vehicle id="159" depart="111.30">
        <route edges="10:9 9:0 0:1 1:3 3:7"/>
    </vehicle>
    <vehicle id="163" depart="114.10">
        <route edges="0:2 2:8"/>
    </vehicle>
    <vehicle id="164" depart="114.80">
        <route edges="0:1 1:5"/>
    </vehicle>
    <vehicle id="168" depart="117.60">
        <route edges="6:5 5:1 1:0 0:9"/>
    </vehicle>
    <vehicle id="171" depart="119.70">
        <route edges="7:3 3:1 1:5 5:6"/>
    </vehicle>
    <vehicle id="173" depart="121.10">
        <route edges="7:3 3:1"/>
    </vehicle>
    <vehicle id="181" depart="126.70">
        <route edges="7:3 3:1 1:0 0:2 2:8"/>
    </vehicle>
    <vehicle id="182" depart="127.40">
        <route edges="8:2 2:0 0:1 1:3 3:7"/>
    </vehicle>
    <vehicle id="183" depart="128.10">
        <route edges="6:5 5:1 1:0 0:2 2:8"/>
    </vehicle>
    <vehicle id="184" depart="128.80">
        <route edges="2:0 0:1 1:5"/>
    </vehicle>
    <vehicle id="185" depart="129.50">
        <route edges="0:2 2:8"/>
    </vehicle>
    <vehicle id="187" depart="130.90">
        <route edges="2:0 0:1 1:3 3:7"/>
    </vehicle>
    <vehicle id="192" depart="134.40">
        <route edges="2:0 0:9"/>
    </vehicle>
    <vehicle id="195" depart="136.50">
        <route edges="5:1 1:3 3:7"/>
    </vehicle>
    <vehicle id="196" depart="137.20">
        <route edges="10:9 9:0 0:1 1:3 3:7"/>
    </vehicle>
    <vehicle id="198" depart="138.60">
        <route edges="7:3 3:1 1:0 0:2"/>
    </vehicle>
    <vehicle id="201" depart="140.70">
        <route edges="9:0 0:1 1:3"/>
    </vehicle>
    <vehicle id="203" depart="142.10">
        <route edges="8:2 2:0 0:1 1:3 3:7"/>
    </vehicle>
    <vehicle id="204" depart="142.80">
        <route edges="9:0 0:2 2:8"/>
    </vehicle>
    <vehicle id="205" depart="143.50">
        <route edges="7:3 3:1 1:0 0:9"/>
    </vehicle>
    <vehicle id="207" depart="144.90">
        <route edges="6:5 5:1 1:0 0:9 9:10"/>
    </vehicle>
    <vehicle id="209" depart="146.30">
        <route edges="7:3 3:1 1:0 0:2"/>
    </vehicle>
    <vehicle id="210" depart="147.00">
        <route edges="7:3 3:1 1:0 0:2 2:8"/>
    </vehicle>
    <vehicle id="213" depart="149.10">
        <route edges="8:2 2:0"/>
    </vehicle>
    <vehicle id="215" depart="150.50">
        <route edges="2:0 0:9 9:10"/>
    </vehicle>
    <vehicle id="217" depart="151.90">
        <route edges="3:1"/>
    </vehicle>
    <vehicle id="218" depart="152.60">
        <route edges="6:5 5:1 1:3 3:7"/>
    </vehicle>
    <vehicle id="220" depart="154.00">
        <route edges="3:1 1:0 0:2"/>
    </vehicle>
    <vehicle id="222" depart="155.40">
        <route edges="8:2 2:0 0:9 9:10"/>
    </vehicle>
    <vehicle id="224" depart="156.80">
        <route edges="5:1 1:0 0:2 2:8"/>
    </vehicle>
    <vehicle id="225" depart="157.50">
        <route edges="7:3 3:1 1:0 0:2 2:8"/>
    </vehicle>
    <vehicle id="226" depart="158.20">
        <route edges="0:2"/>
    </vehicle>
    <vehicle id="227" depart="158.90">
        <route edges="7:3 3:1 1:0 0:2"/>
    </vehicle>
    <vehicle id="228" depart="159.60">
        <route edges="8:2 2:0 0:1 1:3 3:7"/>
    </vehicle>
    <vehicle id="231" depart="161.70">
        <route edges="5:1 1:3 3:7"/>
    </vehicle>
    <vehicle id="238" depart="166.60">
        <route edges="3:1 1:0 0:9 9:10"/>
    </vehicle>
    <vehicle id="241" depart="168.70">
        <route edges="8:2 2:0 0:9"/>
    </vehicle>
    <vehicle id="244" depart="170.80">
        <route edges="7:3 3:1 1:0 0:2 2:8"/>
    </vehicle>
    <vehicle id="245" depart="171.50">
        <route edges="3:1 1:0 0:2 2:8"/>
    </vehicle>
    <vehicle id="246" depart="172.20">
        <route edges="8:2 2:0 0:1 1:5"/>
    </vehicle>
    <vehicle id="248" depart="173.60">
        <route edges="1:3"/>
    </vehicle>
    <vehicle id="249" depart="174.30">
        <route edges="0:1 1:5 5:6"/>
    </vehicle>
    <vehicle id="251" depart="175.70">
        <route edges="8:2 2:0 0:1 1:5 5:6"/>
    </vehicle>
    <vehicle id="253" depart="177.10">
        <route edges="6:5 5:1 1:0 0:2 2:8"/>
    </vehicle>
    <vehicle id="254" depart="177.80">
        <route edges="2:0 0:1 1:3 3:7"/>
    </vehicle>
    <vehicle id="255" depart="178.50">
        <route edges="7:3 3:1 1:0"/>
    </vehicle>
    <vehicle id="258" depart="180.60">
        <route edges="8:2 2:0 0:9"/>
    </vehicle>
    <vehicle id="260" depart="182.00">
        <route edges="2:0 0:9 9:10"/>
    </vehicle>
    <vehicle id="261" depart="182.70">
        <route edges="6:5 5:1 1:0 0:9 9:10"/>
    </vehicle>
    <vehicle id="262" depart="183.40">
        <route edges="10:9 9:0 0:2 2:8"/>
    </vehicle>
    <vehicle id="264" depart="184.80">
        <route edges="5:1 1:3"/>
    </vehicle>
    <vehicle id="266" depart="186.20">
        <route edges="8:2 2:0 0:1 1:3 3:7"/>
    </vehicle>
    <vehicle id="272" depart="190.40">
        <route edges="1:3"/>
    </vehicle>
    <vehicle id="279" depart="195.30">
        <route edges="2:0 0:1"/>
    </vehicle>
    <vehicle id="280" depart="196.00">
        <route edges="0:9"/>
    </vehicle>
    <vehicle id="284" depart="198.80">
        <route edges="9:0 0:2 2:8"/>
    </vehicle>
    <vehicle id="288" depart="201.60">
        <route edges="1:3"/>
    </vehicle>
    <vehicle id="290" depart="203.00">
        <route edges="1:3"/>
    </vehicle>
    <vehicle id="291" depart="203.70">
        <route edges="8:2 2:0"/>
    </vehicle>
    <vehicle id="292" depart="204.40">
        <route edges="7:3 3:1 1:0 0:9"/>
    </vehicle>
    <vehicle id="295" depart="206.50">
        <route edges="7:3 3:1 1:0"/>
    </vehicle>
    <vehicle id="297" depart="207.90">
        <route edges="9:0 0:1 1:3 3:7"/>
    </vehicle>
    <vehicle id="298" depart="208.60">
        <route edges="1:0 0:9 9:10"/>
    </vehicle>
    <vehicle id="299" depart="209.30">
        <route edges="5:1 1:3"/>
    </vehicle>
    <vehicle id="301" depart="210.70">
        <route edges="5:1 1:0"/>
    </vehicle>
    <vehicle id="302" depart="211.40">
        <route edges="3:1 1:0 0:2"/>
    </vehicle>
    <vehicle id="303" depart="212.10">
        <route edges="9:0 0:1 1:3"/>
    </vehicle>
    <vehicle id="305" depart="213.50">
        <route edges="10:9 9:0 0:1 1:3 3:7"/>
    </vehicle>
    <vehicle id="308" depart="215.60">
        <route edges="8:2 2:0"/>
    </vehicle>
    <vehicle id="309" depart="216.30">
        <route edges="7:3 3:1"/>
    </vehicle>
    <vehicle id="310" depart="217.00">
        <route edges="1:0"/>
    </vehicle>
    <vehicle id="311" depart="217.70">
        <route edges="6:5 5:1 1:3"/>
    </vehicle>
    <vehicle id="313" depart="219.10">
        <route edges="10:9 9:0 0:2 2:8"/>
    </vehicle>
    <vehicle id="317" depart="221.90">
        <route edges="1:0 0:9"/>
    </vehicle>
    <vehicle id="319" depart="223.30">
        <route edges="7:3 3:1 1:5 5:6"/>
    </vehicle>
    <vehicle id="323" depart="226.10">
        <route edges="7:3 3:1"/>
    </vehicle>
    <vehicle id="326" depart="228.20">
        <route edges="2:0 0:1 1:3"/>
    </vehicle>
    <vehicle id="327" depart="228.90">
        <route edges="0:2 2:8"/>
    </vehicle>
    <vehicle id="328" depart="229.60">
        <route edges="2:0"/>
    </vehicle>
    <vehicle id="329" depart="230.30">
        <route edges="1:0 0:2 2:8"/>
    </vehicle>
    <vehicle id="330" depart="231.00">
        <route edges="3:1 1:5"/>
    </vehicle>
    <vehicle id="333" depart="233.10">
        <route edges="10:9 9:0 0:2 2:8"/>
    </vehicle>
    <vehicle id="337" depart="235.90">
        <route edges="6:5 5:1 1:0 0:2 2:8"/>
    </vehicle>
    <vehicle id="338" depart="236.60">
        <route edges="3:1"/>
    </vehicle>
    <vehicle id="339" depart="237.30">
        <route edges="10:9 9:0 0:2"/>
    </vehicle>
    <vehicle id="340" depart="238.00">
        <route edges="6:5 5:1 1:3 3:7"/>
    </vehicle>
    <vehicle id="341" depart="238.70">
        <route edges="8:2 2:0 0:1 1:3 3:7"/>
    </vehicle>
    <vehicle id="346" depart="242.20">
        <route edges="2:0 0:9 9:10"/>
    </vehicle>
    <vehicle id="349" depart="244.30">
        <route edges="1:0 0:2 2:8"/>
    </vehicle>
    <vehicle id="351" depart="245.70">
        <route edges="7:3 3:1 1:0 0:2 2:8"/>
    </vehicle>
    <vehicle id="352" depart="246.40">
        <route edges="6:5 5:1 1:0 0:2 2:8"/>
    </vehicle>
    <vehicle id="356" depart="249.20">
        <route edges="3:1"/>
    </vehicle>
    <vehicle id="358" depart="250.60">
        <route edges="7:3 3:1"/>
    </vehicle>
    <vehicle id="359" depart="251.30">
        <route edges="1:3 3:7"/>
    </vehicle>
    <vehicle id="361" depart="252.70">
        <route edges="1:3 3:7"/>
    </vehicle>
    <vehicle id="362" depart="253.40">
        <route edges="0:2 2:8"/>
    </vehicle>
    <vehicle id="364" depart="254.80">
        <route edges="7:3 3:1 1:0 0:2"/>
    </vehicle>
    <vehicle id="365" depart="255.50">
        <route edges="6:5 5:1 1:0 0:9 9:10"/>
    </vehicle>
    <vehicle id="366" depart="256.20">
        <route edges="8:2 2:0 0:1 1:3"/>
    </vehicle>
    <vehicle id="368" depart="257.60">
        <route edges="3:1 1:0 0:2"/>
    </vehicle>
    <vehicle id="369" depart="258.30">
        <route edges="8:2 2:0 0:1 1:3"/>
    </vehicle>
    <vehicle id="370" depart="259.00">
        <route edges="1:0 0:9 9:10"/>
    </vehicle>
    <vehicle id="372" depart="260.40">
        <route edges="2:0"/>
    </vehicle>
    <vehicle id="376" depart="263.20">
        <route edges="7:3 3:1 1:0 0:9 9:10"/>
    </vehicle>
    <vehicle id="377" depart="263.90">
        <route edges="7:3 3:1 1:0"/>
    </vehicle>
    <vehicle id="379" depart="265.30">
        <route edges="7:3 3:1"/>
    </vehicle>
    <vehicle id="381" depart="266.70">
        <route edges="1:0 0:2 2:8"/>
    </vehicle>
    <vehicle id="382" depart="267.40">
        <route edges="8:2 2:0"/>
    </vehicle>
    <vehicle id="383" depart="268.10">
        <route edges="1:0 0:2"/>
    </vehicle>
    <vehicle id="385" depart="269.50">
        <route edges="9:0 0:1 1:3 3:7"/>
    </vehicle>
    <vehicle id="386" depart="270.20">
        <route edges="3:1 1:0 0:2 2:8"/>
    </vehicle>
    <vehicle id="387" depart="270.90">
        <route edges="3:1 1:0 0:9 9:10"/>
    </vehicle>
    <vehicle id="391" depart="273.70">
        <route edges="7:3 3:1 1:0 0:2"/>
    </vehicle>
    <vehicle id="392" depart="274.40">
        <route edges="0:2 2:8"/>
    </vehicle>
    <vehicle id="393" depart="275.10">
        <route edges="6:5 5:1 1:0 0:2 2:8"/>
    </vehicle>
    <vehicle id="394" depart="275.80">
        <route edges="10:9 9:0 0:2"/>
    </vehicle>
    <vehicle id="395" depart="276.50">
        <route edges="8:2 2:0 0:1 1:3 3:7"/>
    </vehicle>
    <vehicle id="397" depart="277.90">
        <route edges="7:3 3:1 1:0 0:9 9:10"/>
    </vehicle>
    <vehicle id="401" depart="280.70">
        <route edges="7:3 3:1"/>
    </vehicle>
    <vehicle id="402" depart="281.40">
        <route edges="5:1 1:3"/>
    </vehicle>
    <vehicle id="406" depart="284.20">
        <route edges="8:2 2:0 0:1 1:5"/>
    </vehicle>
    <vehicle id="410" depart="287.00">
        <route edges="0:1 1:3 3:7"/>
    </vehicle>
    <vehicle id="412" depart="288.40">
        <route edges="7:3 3:1 1:5 5:6"/>
    </vehicle>
    <vehicle id="414" depart="289.80">
        <route edges="7:3 3:1 1:0"/>
    </vehicle>
    <vehicle id="418" depart="292.60">
        <route edges="10:9 9:0 0:2"/>
    </vehicle>
    <vehicle id="420" depart="294.00">
        <route edges="7:3 3:1 1:0 0:2 2:8"/>
    </vehicle>
    <vehicle id="421" depart="294.70">
        <route edges="7:3 3:1"/>
    </vehicle>
    <vehicle id="423" depart="296.10">
        <route edges="7:3 3:1 1:5 5:6"/>
    </vehicle>
    <vehicle id="435" depart="304.50">
        <route edges="7:3 3:1 1:0 0:2"/>
    </vehicle>
    <vehicle id="437" depart="305.90">
        <route edges="6:5 5:1"/>
    </vehicle>
    <vehicle id="438" depart="306.60">
        <route edges="1:0 0:2"/>
    </vehicle>
    <vehicle id="439" depart="307.30">
        <route edges="9:0 0:1 1:5 5:6"/>
    </vehicle>
    <vehicle id="440" depart="308.00">
        <route edges="1:3 3:7"/>
    </vehicle>
    <vehicle id="444" depart="310.80">
        <route edges="0:2 2:8"/>
    </vehicle>
    <vehicle id="445" depart="311.50">
        <route edges="2:0 0:1"/>
    </vehicle>
    <vehicle id="448" depart="313.60">
        <route edges="8:2 2:0"/>
    </vehicle>
    <vehicle id="451" depart="315.70">
        <route edges="9:0 0:1 1:3 3:7"/>
    </vehicle>
    <vehicle id="452" depart="316.40">
        <route edges="7:3 3:1"/>
    </vehicle>
    <vehicle id="453" depart="317.10">
        <route edges="8:2 2:0 0:1 1:3"/>
    </vehicle>
    <vehicle id="455" depart="318.50">
        <route edges="10:9 9:0 0:1 1:3 3:7"/>
    </vehicle>
    <vehicle id="456" depart="319.20">
        <route edges="5:1 1:3 3:7"/>
    </vehicle>
    <vehicle id="457" depart="319.90">
        <route edges="8:2 2:0 0:1 1:5 5:6"/>
    </vehicle>
    <vehicle id="459" depart="321.30">
        <route edges="7:3 3:1 1:5 5:6"/>
    </vehicle>
    <vehicle id="460" depart="322.00">
        <route edges="6:5 5:1 1:0 0:2 2:8"/>
    </vehicle>
    <vehicle id="462" depart="323.40">
        <route edges="8:2 2:0 0:1 1:5"/>
    </vehicle>
    <vehicle id="463" depart="324.10">
        <route edges="2:0 0:1"/>
    </vehicle>
    <vehicle id="464" depart="324.80">
        <route edges="8:2 2:0 0:1"/>
    </vehicle>
    <vehicle id="465" depart="325.50">
        <route edges="7:3 3:1 1:0 0:2 2:8"/>
    </vehicle>
    <vehicle id="467" depart="326.90">
        <route edges="9:0 0:1"/>
    </vehicle>
    <vehicle id="468" depart="327.60">
        <route edges="8:2 2:0 0:1 1:3"/>
    </vehicle>
    <vehicle id="469" depart="328.30">
        <route edges="5:1 1:3 3:7"/>
    </vehicle>
    <vehicle id="470" depart="329.00">
        <route edges="10:9 9:0 0:2 2:8"/>
    </vehicle>
    <vehicle id="473" depart="331.10">
        <route edges="8:2 2:0"/>
    </vehicle>
    <vehicle id="474" depart="331.80">
        <route edges="3:1"/>
    </vehicle>
    <vehicle id="475" depart="332.50">
        <route edges="3:1 1:0 0:2"/>
    </vehicle>
    <vehicle id="477" depart="333.90">
        <route edges="10:9 9:0 0:1 1:5 5:6"/>
    </vehicle>
    <vehicle id="479" depart="335.30">
        <route edges="1:3"/>
    </vehicle>
    <vehicle id="480" depart="336.00">
        <route edges="8:2 2:0 0:1 1:5 5:6"/>
    </vehicle>
    <vehicle id="483" depart="338.10">
        <route edges="2:0 0:1"/>
    </vehicle>
    <vehicle id="488" depart="341.60">
        <route edges="6:5 5:1 1:3 3:7"/>
    </vehicle>
    <vehicle id="499" depart="349.30">
        <route edges="10:9 9:0 0:2 2:8"/>
    </vehicle>
    <vehicle id="504" depart="352.80">
        <route edges="2:0 0:1 1:3 3:7"/>
    </vehicle>
    <vehicle id="505" depart="353.50">
        <route edges="7:3 3:1 1:0"/>
    </vehicle>
    <vehicle id="508" depart="355.60">
        <route edges="0:2 2:8"/>
    </vehicle>
    <vehicle id="511" depart="357.70">
        <route edges="7:3 3:1 1:0 0:2"/>
    </vehicle>
    <vehicle id="512" depart="358.40">
        <route edges="8:2 2:0 0:1 1:5 5:6"/>
    </vehicle>
    <vehicle id="519" depart="363.30">
        <route edges="5:1 1:0 0:9 9:10"/>
    </vehicle>
    <vehicle id="520" depart="364.00">
        <route edges="8:2 2:0 0:9 9:10"/>
    </vehicle>
    <vehicle id="523" depart="366.10">
        <route edges="0:1 1:5 5:6"/>
    </vehicle>
    <vehicle id="526" depart="368.20">
        <route edges="3:1 1:0 0:2 2:8"/>
    </vehicle>
    <vehicle id="527" depart="368.90">
        <route edges="8:2 2:0 0:9 9:10"/>
    </vehicle>
    <vehicle id="535" depart="374.50">
        <route edges="1:0 0:2 2:8"/>
    </vehicle>
    <vehicle id="537" depart="375.90">
        <route edges="7:3 3:1 1:0 0:2 2:8"/>
    </vehicle>
    <vehicle id="543" depart="380.10">
        <route edges="7:3 3:1 1:0 0:2"/>
    </vehicle>
    <vehicle id="544" depart="380.80">
        <route edges="7:3 3:1 1:0 0:2 2:8"/>
    </vehicle>
    <vehicle id="548" depart="383.60">
        <route edges="3:1 1:0 0:9 9:10"/>
    </vehicle>
    <vehicle id="549" depart="384.30">
        <route edges="1:3 3:7"/>
    </vehicle>
    <vehicle id="550" depart="385.00">
        <route edges="10:9 9:0 0:1 1:5 5:6"/>
    </vehicle>
    <vehicle id="554" depart="387.80">
        <route edges="8:2 2:0 0:1 1:3 3:7"/>
    </vehicle>
    <vehicle id="560" depart="392.00">
        <route edges="1:5 5:6"/>
    </vehicle>
    <vehicle id="561" depart="392.70">
        <route edges="8:2 2:0 0:1 1:3 3:7"/>
    </vehicle>
    <vehicle id="563" depart="394.10">
        <route edges="8:2 2:0 0:9"/>
    </vehicle>
    <vehicle id="565" depart="395.50">
        <route edges="2:0 0:1 1:3 3:7"/>
    </vehicle>
    <vehicle id="567" depart="396.90">
        <route edges="5:1 1:3 3:7"/>
    </vehicle>
    <vehicle id="569" depart="398.30">
        <route edges="5:1 1:3 3:7"/>
    </vehicle>
    <vehicle id="573" depart="401.10">
        <route edges="8:2 2:0 0:9 9:10"/>
    </vehicle>
    <vehicle id="574" depart="401.80">
        <route edges="5:1"/>
    </vehicle>
    <vehicle id="575" depart="402.50">
        <route edges="3:1 1:5 5:6"/>
    </vehicle>
    <vehicle id="576" depart="403.20">
        <route edges="8:2 2:0 0:1"/>
    </vehicle>
    <vehicle id="578" depart="404.60">
        <route edges="5:1 1:3 3:7"/>
    </vehicle>
    <vehicle id="580" depart="406.00">
        <route edges="2:0 0:1 1:3 3:7"/>
    </vehicle>
    <vehicle id="583" depart="408.10">
        <route edges="10:9 9:0 0:1 1:5 5:6"/>
    </vehicle>
    <vehicle id="584" depart="408.80">
        <route edges="7:3 3:1 1:0 0:9 9:10"/>
    </vehicle>
    <vehicle id="592" depart="414.40">
        <route edges="5:1 1:3 3:7"/>
    </vehicle>
    <vehicle id="596" depart="417.20">
        <route edges="5:1 1:0 0:9"/>
    </vehicle>
    <vehicle id="598" depart="418.60">
        <route edges="3:1 1:5 5:6"/>
    </vehicle>
    <vehicle id="600" depart="420.00">
        <route edges="5:1 1:0 0:2"/>
    </vehicle>
    <vehicle id="601" depart="420.70">
        <route edges="8:2 2:0 0:1 1:5"/>
    </vehicle>
    <vehicle id="602" depart="421.40">
        <route edges="10:9 9:0 0:1 1:3 3:7"/>
    </vehicle>
    <vehicle id="604" depart="422.80">
        <route edges="10:9 9:0 0:1 1:5"/>
    </vehicle>
    <vehicle id="606" depart="424.20">
        <route edges="1:3"/>
    </vehicle>
    <vehicle id="607" depart="424.90">
        <route edges="0:9 9:10"/>
    </vehicle>
    <vehicle id="608" depart="425.60">
        <route edges="5:1"/>
    </vehicle>
    <vehicle id="617" depart="431.90">
        <route edges="1:0 0:2 2:8"/>
    </vehicle>
    <vehicle id="619" depart="433.30">
        <route edges="7:3 3:1 1:0"/>
    </vehicle>
    <vehicle id="620" depart="434.00">
        <route edges="2:0 0:1 1:3 3:7"/>
    </vehicle>
    <vehicle id="621" depart="434.70">
        <route edges="6:5 5:1 1:3"/>
    </vehicle>
    <vehicle id="622" depart="435.40">
        <route edges="7:3 3:1 1:0 0:9"/>
    </vehicle>
    <vehicle id="623" depart="436.10">
        <route edges="10:9 9:0 0:1 1:3"/>
    </vehicle>
    <vehicle id="626" depart="438.20">
        <route edges="0:1 1:5"/>
    </vehicle>
    <vehicle id="627" depart="438.90">
        <route edges="6:5 5:1 1:0 0:9 9:10"/>
    </vehicle>
    <vehicle id="628" depart="439.60">
        <route edges="7:3 3:1 1:0 0:9"/>
    </vehicle>
    <vehicle id="632" depart="442.40">
        <route edges="8:2 2:0 0:1"/>
    </vehicle>
    <vehicle id="635" depart="444.50">
        <route edges="1:0 0:9"/>
    </vehicle>
    <vehicle id="637" depart="445.90">
        <route edges="6:5 5:1 1:0 0:2 2:8"/>
    </vehicle>
    <vehicle id="641" depart="448.70">
        <route edges="6:5 5:1 1:0 0:2"/>
    </vehicle>
    <vehicle id="642" depart="449.40">
        <route edges="7:3 3:1 1:0 0:9"/>
    </vehicle>
    <vehicle id="643" depart="450.10">
        <route edges="3:1 1:0 0:2"/>
    </vehicle>
    <vehicle id="645" depart="451.50">
        <route edges="0:1 1:5 5:6"/>
    </vehicle>
    <vehicle id="646" depart="452.20">
        <route edges="6:5 5:1 1:0 0:9"/>
    </vehicle>
    <vehicle id="647" depart="452.90">
        <route edges="7:3 3:1 1:0 0:9 9:10"/>
    </vehicle>
    <vehicle id="648" depart="453.60">
        <route edges="8:2 2:0"/>
    </vehicle>
    <vehicle id="649" depart="454.30">
        <route edges="7:3 3:1 1:5"/>
    </vehicle>
    <vehicle id="650" depart="455.00">
        <route edges="1:0 0:9"/>
    </vehicle>
    <vehicle id="651" depart="455.70">
        <route edges="1:0 0:2"/>
    </vehicle>
    <vehicle id="652" depart="456.40">
        <route edges="7:3 3:1 1:0 0:2 2:8"/>
    </vehicle>
    <vehicle id="653" depart="457.10">
        <route edges="7:3 3:1 1:0 0:2 2:8"/>
    </vehicle>
    <vehicle id="655" depart="458.50">
        <route edges="5:1 1:0"/>
    </vehicle>
    <vehicle id="656" depart="459.20">
        <route edges="2:0 0:1 1:3 3:7"/>
    </vehicle>
    <vehicle id="657" depart="459.90">
        <route edges="1:3 3:7"/>
    </vehicle>
    <vehicle id="659" depart="461.30">
        <route edges="8:2 2:0 0:1 1:3"/>
    </vehicle>
    <vehicle id="660" depart="462.00">
        <route edges="2:0 0:1 1:3 3:7"/>
    </vehicle>
    <vehicle id="661" depart="462.70">
        <route edges="10:9 9:0 0:1 1:3"/>
    </vehicle>
    <vehicle id="664" depart="464.80">
        <route edges="0:2 2:8"/>
    </vehicle>
    <vehicle id="665" depart="465.50">
        <route edges="10:9 9:0 0:1 1:3"/>
    </vehicle>
    <vehicle id="666" depart="466.20">
        <route edges="7:3 3:1 1:0 0:2 2:8"/>
    </vehicle>
    <vehicle id="667" depart="466.90">
        <route edges="0:2 2:8"/>
    </vehicle>
    <vehicle id="668" depart="467.60">
        <route edges="1:3 3:7"/>
    </vehicle>
    <vehicle id="669" depart="468.30">
        <route edges="8:2 2:0 0:1 1:3"/>
    </vehicle>
    <vehicle id="671" depart="469.70">
        <route edges="0:9 9:10"/>
    </vehicle>
    <vehicle id="673" depart="471.10">