<?xml version="1.0" encoding="UTF-8"?>

<!-- generated on Thu Feb 13 14:13:46 2014 by SUMO duarouter Version 0.18.0
<?xml version="1.0" encoding="UTF-8"?>

<configuration xmlns:xsi="http://www.w3.org/2001/XMLSchema-instance" xsi:noNamespaceSchemaLocation="http://sumo.sf.net/xsd/duarouterConfiguration.xsd">

    <input>
        <net-file value="twinT.net.xml"/>
        <trip-files value="experimentos/twinT.p0.1.1.trips.xml"/>
    </input>

    <output>
        <output-file value="experimentos/twinT.p0.1.1.rou.xml"/>
    </output>

    <processing>
        <ignore-errors value="true"/>
    </processing>

    <random_number>
        <random value="true"/>
    </random_number>

</configuration>
-->

<routes xmlns:xsi="http://www.w3.org/2001/XMLSchema-instance" xsi:noNamespaceSchemaLocation="http://sumo.sf.net/xsd/routes_file.xsd">
    <vehicle id="0" depart="0.00">
        <route edges="7:3 3:1"/>
    </vehicle>
    <vehicle id="5" depart="0.50">
        <route edges="1:3 3:7"/>
    </vehicle>
    <vehicle id="6" depart="0.60">
        <route edges="3:1 1:0 0:2"/>
    </vehicle>
    <vehicle id="7" depart="0.70">
        <route edges="7:3 3:1 1:0 0:2"/>
    </vehicle>
    <vehicle id="8" depart="0.80">
        <route edges="2:0 0:1 1:3 3:7"/>
    </vehicle>
    <vehicle id="9" depart="0.90">
        <route edges="8:2 2:0 0:1"/>
    </vehicle>
    <vehicle id="12" depart="1.20">
        <route edges="6:5 5:1 1:0 0:2 2:8"/>
    </vehicle>
    <vehicle id="18" depart="1.80">
        <route edges="8:2 2:0 0:1 1:3 3:7"/>
    </vehicle>
    <vehicle id="19" depart="1.90">
        <route edges="2:0"/>
    </vehicle>
    <vehicle id="20" depart="2.00">
        <route edges="6:5 5:1 1:3"/>
    </vehicle>
    <vehicle id="21" depart="2.10">
        <route edges="1:3 3:7"/>
    </vehicle>
    <vehicle id="22" depart="2.20">
        <route edges="9:0 0:1 1:3 3:7"/>
    </vehicle>
    <vehicle id="25" depart="2.50">
        <route edges="8:2 2:0 0:9 9:10"/>
    </vehicle>
    <vehicle id="27" depart="2.70">
        <route edges="0:1 1:3 3:7"/>
    </vehicle>
    <vehicle id="28" depart="2.80">
        <route edges="8:2 2:0 0:1 1:5"/>
    </vehicle>
    <vehicle id="30" depart="3.00">
        <route edges="7:3 3:1 1:0 0:2 2:8"/>
    </vehicle>
    <vehicle id="32" depart="3.20">
        <route edges="8:2 2:0"/>
    </vehicle>
    <vehicle id="33" depart="3.30">
        <route edges="3:1 1:5 5:6"/>
    </vehicle>
    <vehicle id="35" depart="3.50">
        <route edges="8:2 2:0"/>
    </vehicle>
    <vehicle id="37" depart="3.70">
        <route edges="3:1 1:0 0:2 2:8"/>
    </vehicle>
    <vehicle id="41" depart="4.10">
        <route edges="0:2"/>
    </vehicle>
    <vehicle id="42" depart="4.20">
        <route edges="6:5 5:1 1:3 3:7"/>
    </vehicle>
    <vehicle id="43" depart="4.30">
        <route edges="1:3 3:7"/>
    </vehicle>
    <vehicle id="45" depart="4.50">
        <route edges="8:2 2:0 0:1 1:3 3:7"/>
    </vehicle>
    <vehicle id="46" depart="4.60">
        <route edges="7:3 3:1 1:0 0:2"/>
    </vehicle>
    <vehicle id="47" depart="4.70">
        <route edges="8:2 2:0"/>
    </vehicle>
    <vehicle id="49" depart="4.90">
        <route edges="1:3 3:7"/>
    </vehicle>
    <vehicle id="51" depart="5.10">
        <route edges="3:1 1:0 0:2"/>
    </vehicle>
    <vehicle id="52" depart="5.20">
        <route edges="7:3 3:1 1:0 0:2 2:8"/>
    </vehicle>
    <vehicle id="54" depart="5.40">
        <route edges="7:3 3:1 1:0 0:2"/>
    </vehicle>
    <vehicle id="57" depart="5.70">
        <route edges="10:9 9:0 0:1 1:3"/>
    </vehicle>
    <vehicle id="60" depart="6.00">
        <route edges="8:2 2:0 0:1 1:3 3:7"/>
    </vehicle>
    <vehicle id="62" depart="6.20">
        <route edges="6:5 5:1 1:3 3:7"/>
    </vehicle>
    <vehicle id="64" depart="6.40">
        <route edges="1:3 3:7"/>
    </vehicle>
    <vehicle id="67" depart="6.70">
        <route edges="8:2 2:0 0:9 9:10"/>
    </vehicle>
    <vehicle id="68" depart="6.80">
        <route edges="8:2 2:0 0:1 1:3 3:7"/>
    </vehicle>
    <vehicle id="74" depart="7.40">
        <route edges="10:9 9:0 0:1 1:5"/>
    </vehicle>
    <vehicle id="77" depart="7.70">
        <route edges="6:5 5:1 1:3"/>
    </vehicle>
    <vehicle id="79" depart="7.90">
        <route edges="1:0 0:2 2:8"/>
    </vehicle>
    <vehicle id="82" depart="8.20">
        <route edges="8:2 2:0 0:1"/>
    </vehicle>
    <vehicle id="85" depart="8.50">
        <route edges="9:0 0:1 1:3 3:7"/>
    </vehicle>
    <vehicle id="88" depart="8.80">
        <route edges="0:2 2:8"/>
    </vehicle>
    <vehicle id="92" depart="9.20">
        <route edges="9:0 0:2 2:8"/>
    </vehicle>
    <vehicle id="94" depart="9.40">
        <route edges="8:2 2:0 0:1 1:5"/>
    </vehicle>
    <vehicle id="95" depart="9.50">
        <route edges="0:2 2:8"/>
    </vehicle>
    <vehicle id="96" depart="9.60">
        <route edges="6:5 5:1 1:0 0:2 2:8"/>
    </vehicle>
    <vehicle id="97" depart="9.70">
        <route edges="3:1 1:0 0:2"/>
    </vehicle>
    <vehicle id="100" depart="10.00">
        <route edges="0:2 2:8"/>
    </vehicle>
    <vehicle id="101" depart="10.10">
        <route edges="7:3 3:1 1:0 0:9"/>
    </vehicle>
    <vehicle id="102" depart="10.20">
        <route edges="3:1 1:0 0:2"/>
    </vehicle>
    <vehicle id="104" depart="10.40">
        <route edges="8:2 2:0 0:9 9:10"/>
    </vehicle>
    <vehicle id="105" depart="10.50">
        <route edges="5:1 1:0 0:2 2:8"/>
    </vehicle>
    <vehicle id="106" depart="10.60">
        <route edges="5:1 1:3 3:7"/>
    </vehicle>
    <vehicle id="107" depart="10.70">
        <route edges="7:3 3:1 1:5 5:6"/>
    </vehicle>
    <vehicle id="108" depart="10.80">
        <route edges="8:2 2:0 0:1 1:3 3:7"/>
    </vehicle>
    <vehicle id="110" depart="11.00">
        <route edges="8:2 2:0 0:1 1:3 3:7"/>
    </vehicle>
    <vehicle id="113" depart="11.30">
        <route edges="10:9 9:0 0:1 1:3 3:7"/>
    </vehicle>
    <vehicle id="115" depart="11.50">
        <route edges="1:0 0:2"/>
    </vehicle>
    <vehicle id="116" depart="11.60">
        <route edges="8:2 2:0 0:1 1:3 3:7"/>
    </vehicle>
    <vehicle id="118" depart="11.80">
        <route edges="0:1"/>
    </vehicle>
    <vehicle id="119" depart="11.90">
        <route edges="8:2 2:0 0:1 1:3"/>
    </vehicle>
    <vehicle id="120" depart="12.00">
        <route edges="1:5"/>
    </vehicle>
    <vehicle id="121" depart="12.10">
        <route edges="8:2 2:0 0:9"/>
    </vehicle>
    <vehicle id="122" depart="12.20">
        <route edges="1:0 0:2"/>
    </vehicle>
    <vehicle id="123" depart="12.30">
        <route edges="0:1"/>
    </vehicle>
    <vehicle id="124" depart="12.40">
        <route edges="2:0 0:9 9:10"/>
    </vehicle>
    <vehicle id="125" depart="12.50">
        <route edges="3:1 1:0"/>
    </vehicle>
    <vehicle id="132" depart="13.20">
        <route edges="7:3 3:1 1:5 5:6"/>
    </vehicle>
    <vehicle id="135" depart="13.50">
        <route edges="6:5 5:1 1:0 0:2"/>
    </vehicle>
    <vehicle id="136" depart="13.60">
        <route edges="0:1 1:3"/>
    </vehicle>
    <vehicle id="138" depart="13.80">
        <route edges="8:2 2:0 0:1 1:3 3:7"/>
    </vehicle>
    <vehicle id="142" depart="14.20">
        <route edges="8:2 2:0 0:1 1:3 3:7"/>
    </vehicle>
    <vehicle id="144" depart="14.40">
        <route edges="8:2 2:0 0:9 9:10"/>
    </vehicle>
    <vehicle id="145" depart="14.50">
        <route edges="10:9 9:0 0:2 2:8"/>
    </vehicle>
    <vehicle id="146" depart="14.60">
        <route edges="3:1 1:5"/>
    </vehicle>
    <vehicle id="147" depart="14.70">
        <route edges="1:3 3:7"/>
    </vehicle>
    <vehicle id="149" depart="14.90">
        <route edges="6:5 5:1 1:3 3:7"/>
    </vehicle>
    <vehicle id="151" depart="15.10">
        <route edges="7:3 3:1 1:0 0:9 9:10"/>
    </vehicle>
    <vehicle id="154" depart="15.40">
        <route edges="8:2 2:0 0:1 1:3 3:7"/>
    </vehicle>
    <vehicle id="157" depart="15.70">
        <route edges="1:5 5:6"/>
    </vehicle>
    <vehicle id="158" depart="15.80">
        <route edges="5:1 1:3 3:7"/>
    </vehicle>
    <vehicle id="159" depart="15.90">
        <route edges="10:9 9:0 0:1 1:3 3:7"/>
    </vehicle>
    <vehicle id="161" depart="16.10">
        <route edges="10:9 9:0 0:1 1:5 5:6"/>
    </vehicle>
    <vehicle id="162" depart="16.20">
        <route edges="6:5 5:1 1:0 0:2 2:8"/>
    </vehicle>
    <vehicle id="166" depart="16.60">
        <route edges="5:1 1:0 0:2 2:8"/>
    </vehicle>
    <vehicle id="171" depart="17.10">
        <route edges="7:3 3:1"/>
    </vehicle>
    <vehicle id="172" depart="17.20">
        <route edges="1:3 3:7"/>
    </vehicle>
    <vehicle id="175" depart="17.50">
        <route edges="7:3 3:1 1:0 0:2"/>
    </vehicle>
    <vehicle id="176" depart="17.60">
        <route edges="7:3 3:1 1:0 0:9"/>
    </vehicle>
    <vehicle id="178" depart="17.80">
        <route edges="9:0 0:1 1:5 5:6"/>
    </vehicle>
    <vehicle id="182" depart="18.20">
        <route edges="2:0"/>
    </vehicle>
    <vehicle id="183" depart="18.30">
        <route edges="3:1"/>
    </vehicle>
    <vehicle id="184" depart="18.40">
        <route edges="7:3 3:1 1:5 5:6"/>
    </vehicle>
    <vehicle id="185" depart="18.50">
        <route edges="2:0 0:1"/>
    </vehicle>
    <vehicle id="187" depart="18.70">
        <route edges="3:1 1:5 5:6"/>
    </vehicle>
    <vehicle id="189" depart="18.90">
        <route edges="2:0 0:1 1:5"/>
    </vehicle>
    <vehicle id="190" depart="19.00">
        <route edges="7:3 3:1"/>
    </vehicle>
    <vehicle id="192" depart="19.20">
        <route edges="9:0 0:2 2:8"/>
    </vehicle>
    <vehicle id="193" depart="19.30">
        <route edges="6:5 5:1 1:0 0:9 9:10"/>
    </vehicle>
    <vehicle id="194" depart="19.40">
        <route edges="5:1"/>
    </vehicle>
    <vehicle id="198" depart="19.80">
        <route edges="7:3 3:1 1:5 5:6"/>
    </vehicle>
    <vehicle id="199" depart="19.90">
        <route edges="0:2"/>
    </vehicle>
    <vehicle id="202" depart="20.20">
        <route edges="0:1 1:3 3:7"/>
    </vehicle>
    <vehicle id="203" depart="20.30">
        <route edges="8:2 2:0 0:1 1:3 3:7"/>
    </vehicle>
    <vehicle id="205" depart="20.50">
        <route edges="8:2 2:0 0:9 9:10"/>
    </vehicle>
    <vehicle id="208" depart="20.80">
        <route edges="7:3 3:1 1:0 0:2 2:8"/>
    </vehicle>
    <vehicle id="209" depart="20.90">
        <route edges="10:9 9:0 0:2 2:8"/>
    </vehicle>
    <vehicle id="210" depart="21.00">
        <route edges="8:2 2:0 0:1 1:3 3:7"/>
    </vehicle>
    <vehicle id="211" depart="21.10">
        <route edges="10:9 9:0 0:2 2:8"/>
    </vehicle>
    <vehicle id="212" depart="21.20">
        <route edges="0:1 1:3 3:7"/>
    </vehicle>
    <vehicle id="213" depart="21.30">
        <route edges="8:2 2:0 0:1 1:5 5:6"/>
    </vehicle>
    <vehicle id="220" depart="22.00">
        <route edges="2:0 0:1 1:5 5:6"/>
    </vehicle>
    <vehicle id="221" depart="22.10">
        <route edges="6:5 5:1 1:3 3:7"/>
    </vehicle>
    <vehicle id="226" depart="22.60">
        <route edges="9:0 0:2 2:8"/>
    </vehicle>
    <vehicle id="228" depart="22.80">
        <route edges="7:3 3:1 1:5 5:6"/>
    </vehicle>
    <vehicle id="230" depart="23.00">
        <route edges="3:1"/>
    </vehicle>
    <vehicle id="231" depart="23.10">
        <route edges="8:2 2:0"/>
    </vehicle>
    <vehicle id="232" depart="23.20">
        <route edges="5:1 1:0 0:2 2:8"/>
    </vehicle>
    <vehicle id="233" depart="23.30">
        <route edges="9:0 0:1 1:3 3:7"/>
    </vehicle>
    <vehicle id="238" depart="23.80">
        <route edges="2:0 0:1 1:5 5:6"/>
    </vehicle>
    <vehicle id="241" depart="24.10">
        <route edges="10:9 9:0"/>
    </vehicle>
    <vehicle id="242" depart="24.20">
        <route edges="7:3 3:1 1:0 0:2"/>
    </vehicle>
    <vehicle id="244" depart="24.40">
        <route edges="10:9 9:0 0:2 2:8"/>
    </vehicle>
    <vehicle id="247" depart="24.70">
        <route edges="7:3 3:1 1:5 5:6"/>
    </vehicle>
    <vehicle id="248" depart="24.80">
        <route edges="0:1 1:3 3:7"/>
    </vehicle>
    <vehicle id="249" depart="24.90">
        <route edges="8:2 2:0 0:1 1:3 3:7"/>
    </vehicle>
    <vehicle id="250" depart="25.00">
        <route edges="5:1 1:3"/>
    </vehicle>
    <vehicle id="252" depart="25.20">
        <route edges="8:2 2:0 0:1 1:3"/>
    </vehicle>
    <vehicle id="253" depart="25.30">
        <route edges="8:2 2:0 0:9 9:10"/>
    </vehicle>
    <vehicle id="258" depart="25.80">
        <route edges="8:2 2:0 0:1 1:3 3:7"/>
    </vehicle>
    <vehicle id="259" depart="25.90">
        <route edges="8:2 2:0 0:9 9:10"/>
    </vehicle>
    <vehicle id="260" depart="26.00">
        <route edges="3:1 1:0 0:9 9:10"/>
    </vehicle>
    <vehicle id="261" depart="26.10">
        <route edges="2:0 0:9"/>
    </vehicle>
    <vehicle id="264" depart="26.40">
        <route edges="8:2 2:0 0:1 1:3"/>
    </vehicle>
    <vehicle id="266" depart="26.60">
        <route edges="7:3 3:1 1:0 0:2 2:8"/>
    </vehicle>
    <vehicle id="270" depart="27.00">
        <route edges="0:1 1:3 3:7"/>
    </vehicle>
    <vehicle id="272" depart="27.20">
        <route edges="7:3 3:1 1:0 0:2 2:8"/>
    </vehicle>
    <vehicle id="273" depart="27.30">
        <route edges="3:1 1:0 0:2"/>
    </vehicle>
    <vehicle id="274" depart="27.40">
        <route edges="5:1 1:3 3:7"/>
    </vehicle>
    <vehicle id="275" depart="27.50">
        <route edges="8:2 2:0 0:9"/>
    </vehicle>
    <vehicle id="276" depart="27.60">
        <route edges="7:3 3:1 1:0"/>
    </vehicle>
    <vehicle id="277" depart="27.70">
        <route edges="1:0 0:9"/>
    </vehicle>
    <vehicle id="281" depart="28.10">
        <route edges="3:1"/>
    </vehicle>
    <vehicle id="284" depart="28.40">
        <route edges="3:1"/>
    </vehicle>
    <vehicle id="287" depart="28.70">
        <route edges="3:1 1:5"/>
    </vehicle>
    <vehicle id="289" depart="28.90">
        <route edges="1:0 0:2 2:8"/>
    </vehicle>
    <vehicle id="293" depart="29.30">
        <route edges="5:1 1:0 0:2 2:8"/>
    </vehicle>
    <vehicle id="294" depart="29.40">
        <route edges="10:9 9:0 0:1"/>
    </vehicle>
    <vehicle id="295" depart="29.50">
        <route edges="3:1 1:0"/>
    </vehicle>
    <vehicle id="298" depart="29.80">
        <route edges="1:3 3:7"/>
    </vehicle>
    <vehicle id="299" depart="29.90">
        <route edges="0:1 1:5"/>
    </vehicle>
    <vehicle id="300" depart="30.00">
        <route edges="5:1 1:3 3:7"/>
    </vehicle>
    <vehicle id="304" depart="30.40">
        <route edges="2:0 0:9"/>
    </vehicle>
    <vehicle id="307" depart="30.70">
        <route edges="2:0"/>
    </vehicle>
    <vehicle id="310" depart="31.00">
        <route edges="7:3 3:1 1:5 5:6"/>
    </vehicle>
    <vehicle id="313" depart="31.30">
        <route edges="2:0 0:1 1:3"/>
    </vehicle>
    <vehicle id="314" depart="31.40">
        <route edges="5:1 1:0 0:2"/>
    </vehicle>
    <vehicle id="316" depart="31.60">
        <route edges="1:0 0:2 2:8"/>
    </vehicle>
    <vehicle id="318" depart="31.80">
        <route edges="1:3 3:7"/>
    </vehicle>
    <vehicle id="319" depart="31.90">
        <route edges="7:3 3:1 1:5 5:6"/>
    </vehicle>
    <vehicle id="320" depart="32.00">
        <route edges="8:2 2:0 0:1 1:3 3:7"/>
    </vehicle>
    <vehicle id="321" depart="32.10">
        <route edges="8:2 2:0 0:1"/>
    </vehicle>
    <vehicle id="323" depart="32.30">
        <route edges="7:3 3:1 1:0 0:2 2:8"/>
    </vehicle>
    <vehicle id="327" depart="32.70">
        <route edges="10:9 9:0"/>
    </vehicle>
    <vehicle id="328" depart="32.80">
        <route edges="8:2 2:0 0:1 1:3 3:7"/>
    </vehicle>
    <vehicle id="329" depart="32.90">
        <route edges="9:0 0:2"/>
    </vehicle>
    <vehicle id="331" depart="33.10">
        <route edges="2:0 0:1 1:3"/>
    </vehicle>
    <vehicle id="332" depart="33.20">
        <route edges="8:2 2:0 0:1 1:3 3:7"/>
    </vehicle>
    <vehicle id="335" depart="33.50">
        <route edges="7:3 3:1 1:5 5:6"/>
    </vehicle>
    <vehicle id="336" depart="33.60">
        <route edges="8:2 2:0 0:1 1:3"/>
    </vehicle>
    <vehicle id="337" depart="33.70">
        <route edges="7:3 3:1 1:0 0:2 2:8"/>
    </vehicle>
    <vehicle id="339" depart="33.90">
        <route edges="5:1 1:3 3:7"/>
    </vehicle>
    <vehicle id="340" depart="34.00">
        <route edges="7:3 3:1 1:0 0:2 2:8"/>
    </vehicle>
    <vehicle id="342" depart="34.20">
        <route edges="8:2 2:0 0:1 1:3"/>
    </vehicle>
    <vehicle id="343" depart="34.30">
        <route edges="7:3 3:1 1:5 5:6"/>
    </vehicle>
    <vehicle id="345" depart="34.50">
        <route edges="2:0 0:1 1:3 3:7"/>
    </vehicle>
    <vehicle id="346" depart="34.60">
        <route edges="6:5 5:1"/>
    </vehicle>
    <vehicle id="347" depart="34.70">
        <route edges="8:2 2:0"/>
    </vehicle>
    <vehicle id="349" depart="34.90">
        <route edges="10:9 9:0 0:2"/>
    </vehicle>
    <vehicle id="350" depart="35.00">
        <route edges="7:3 3:1 1:0 0:2 2:8"/>
    </vehicle>
    <vehicle id="354" depart="35.40">
        <route edges="1:3"/>
    </vehicle>
    <vehicle id="355" depart="35.50">
        <route edges="7:3 3:1"/>
    </vehicle>
    <vehicle id="356" depart="35.60">
        <route edges="7:3 3:1 1:5"/>
    </vehicle>
    <vehicle id="360" depart="36.00">
        <route edges="8:2 2:0"/>
    </vehicle>
    <vehicle id="362" depart="36.20">
        <route edges="9:0 0:2 2:8"/>
    </vehicle>
    <vehicle id="363" depart="36.30">
        <route edges="9:0 0:2"/>
    </vehicle>
    <vehicle id="365" depart="36.50">
        <route edges="0:9 9:10"/>
    </vehicle>
    <vehicle id="369" depart="36.90">
        <route edges="10:9 9:0 0:1 1:3"/>
    </vehicle>
    <vehicle id="372" depart="37.20">
        <route edges="1:3"/>
    </vehicle>
    <vehicle id="373" depart="37.30">
        <route edges="8:2 2:0 0:1 1:5"/>
    </vehicle>
    <vehicle id="375" depart="37.50">
        <route edges="5:1 1:0 0:9"/>
    </vehicle>
    <vehicle id="376" depart="37.60">
        <route edges="8:2 2:0 0:1"/>
    </vehicle>
    <vehicle id="377" depart="37.70">
        <route edges="3:1 1:0 0:2 2:8"/>
    </vehicle>
    <vehicle id="378" depart="37.80">
        <route edges="8:2 2:0"/>
    </vehicle>
    <vehicle id="379" depart="37.90">
        <route edges="2:0 0:1 1:3"/>
    </vehicle>
    <vehicle id="380" depart="38.00">
        <route edges="1:0 0:2 2:8"/>
    </vehicle>
    <vehicle id="382" depart="38.20">
        <route edges="3:1 1:0 0:2"/>
    </vehicle>
    <vehicle id="383" depart="38.30">
        <route edges="5:1 1:0"/>
    </vehicle>
    <vehicle id="385" depart="38.50">
        <route edges="1:0 0:9"/>
    </vehicle>
    <vehicle id="391" depart="39.10">
        <route edges="3:1 1:0 0:2 2:8"/>
    </vehicle>
    <vehicle id="392" depart="39.20">
        <route edges="2:0 0:9"/>
    </vehicle>
    <vehicle id="400" depart="40.00">
        <route edges="3:1 1:0 0:9 9:10"/>
    </vehicle>
    <vehicle id="402" depart="40.20">
        <route edges="7:3 3:1 1:0 0:2"/>
    </vehicle>
    <vehicle id="403" depart="40.30">
        <route edges="0:1 1:5 5:6"/>
    </vehicle>
    <vehicle id="404" depart="40.40">
        <route edges="8:2 2:0 0:9"/>
    </vehicle>
    <vehicle id="406" depart="40.60">
        <route edges="9:0 0:1 1:3 3:7"/>
    </vehicle>
    <vehicle id="407" depart="40.70">
        <route edges="1:0 0:2 2:8"/>
    </vehicle>
    <vehicle id="408" depart="40.80">
        <route edges="0:1 1:3"/>
    </vehicle>
    <vehicle id="409" depart="40.90">
        <route edges="7:3 3:1"/>
    </vehicle>
    <vehicle id="413" depart="41.30">
        <route edges="8:2 2:0 0:9"/>
    </vehicle>
    <vehicle id="414" depart="41.40">
        <route edges="6:5 5:1 1:0 0:2 2:8"/>
    </vehicle>
    <vehicle id="415" depart="41.50">
        <route edges="5:1 1:3"/>
    </vehicle>
    <vehicle id="418" depart="41.80">
        <route edges="7:3 3:1 1:0 0:9 9:10"/>
    </vehicle>
    <vehicle id="419" depart="41.90">
        <route edges="0:2"/>
    </vehicle>
    <vehicle id="421" depart="42.10">
        <route edges="3:1 1:0 0:9 9:10"/>
    </vehicle>
    <vehicle id="423" depart="42.30">
        <route edges="8:2 2:0 0:1"/>
    </vehicle>
    <vehicle id="424" depart="42.40">
        <route edges="5:1 1:3"/>
    </vehicle>
    <vehicle id="426" depart="42.60">
        <route edges="9:0"/>
    </vehicle>
    <vehicle id="431" depart="43.10">
        <route edges="10:9 9:0 0:1 1:3 3:7"/>
    </vehicle>
    <vehicle id="436" depart="43.60">
        <route edges="8:2 2:0 0:1 1:3 3:7"/>
    </vehicle>
    <vehicle id="437" depart="43.70">
        <route edges="8:2 2:0 0:1 1:3"/>
    </vehicle>
    <vehicle id="439" depart="43.90">
        <route edges="9:0 0:1 1:3 3:7"/>
    </vehicle>
    <vehicle id="444" depart="44.40">
        <route edges="9:0 0:1 1:3 3:7"/>
    </vehicle>
    <vehicle id="449" depart="44.90">
        <route edges="7:3 3:1"/>
    </vehicle>
    <vehicle id="451" depart="45.10">
        <route edges="8:2 2:0 0:9 9:10"/>
    </vehicle>
    <vehicle id="452" depart="45.20">
        <route edges="1:3 3:7"/>
    </vehicle>
    <vehicle id="453" depart="45.30">
        <route edges="9:0 0:1 1:3 3:7"/>
    </vehicle>
    <vehicle id="455" depart="45.50">
        <route edges="3:1 1:0 0:2 2:8"/>
    </vehicle>
    <vehicle id="456" depart="45.60">
        <route edges="10:9 9:0 0:2 2:8"/>
    </vehicle>
    <vehicle id="457" depart="45.70">
        <route edges="8:2 2:0 0:9 9:10"/>
    </vehicle>
    <vehicle id="458" depart="45.80">
        <route edges="2:0 0:1 1:3"/>
    </vehicle>
    <vehicle id="460" depart="46.00">
        <route edges="10:9 9:0 0:1 1:3"/>
    </vehicle>
    <vehicle id="461" depart="46.10">
        <route edges="9:0 0:2 2:8"/>
    </vehicle>
    <vehicle id="462" depart="46.20">
        <route edges="7:3 3:1 1:0 0:2"/>
    </vehicle>
    <vehicle id="463" depart="46.30">
        <route edges="7:3 3:1 1:0 0:2 2:8"/>
    </vehicle>
    <vehicle id="465" depart="46.50">
        <route edges="8:2 2:0 0:1 1:3 3:7"/>
    </vehicle>
    <vehicle id="470" depart="47.00">
        <route edges="0:1"/>
    </vehicle>
    <vehicle id="474" depart="47.40">
        <route edges="2:0 0:9"/>
    </vehicle>
    <vehicle id="475" depart="47.50">
        <route edges="7:3 3:1 1:5 5:6"/>
    </vehicle>
    <vehicle id="476" depart="47.60">
        <route edges="3:1"/>
    </vehicle>
    <vehicle id="478" depart="47.80">
        <route edges="3:1"/>
    </vehicle>
    <vehicle id="479" depart="47.90">
        <route edges="8:2 2:0 0:9 9:10"/>
    </vehicle>
    <vehicle id="481" depart="48.10">
        <route edges="7:3 3:1 1:0 0:2"/>
    </vehicle>
    <vehicle id="483" depart="48.30">
        <route edges="1:0 0:2"/>
    </vehicle>
    <vehicle id="484" depart="48.40">
        <route edges="8:2 2:0 0:9 9:10"/>
    </vehicle>
    <vehicle id="485" depart="48.50">
        <route edges="8:2 2:0 0:1 1:3 3:7"/>
    </vehicle>
    <vehicle id="487" depart="48.70">
        <route edges="2:0 0:1 1:5 5:6"/>
    </vehicle>
    <vehicle id="490" depart="49.00">
        <route edges="8:2 2:0 0:1 1:5"/>
    </vehicle>
    <vehicle id="491" depart="49.10">
        <route edges="6:5 5:1 1:3 3:7"/>
    </vehicle>
    <vehicle id="493" depart="49.30">
        <route edges="7:3 3:1 1:5 5:6"/>
    </vehicle>
    <vehicle id="495" depart="49.50">
        <route edges="10:9 9:0 0:1 1:3"/>
    </vehicle>
    <vehicle id="497" depart="49.70">
        <route edges="7:3 3:1 1:0 0:2 2:8"/>
    </vehicle>
    <vehicle id="498" depart="49.80">
        <route edges="7:3 3:1 1:0 0:2"/>
    </vehicle>
    <vehicle id="500" depart="50.00">
        <route edges="10:9 9:0 0:2"/>
    </vehicle>
    <vehicle id="502" depart="50.20">
        <route edges="7:3 3:1 1:0"/>
    </vehicle>
    <vehicle id="503" depart="50.30">
        <route edges="8:2 2:0 0:1 1:3 3:7"/>
    </vehicle>
    <vehicle id="504" depart="50.40">
        <route edges="9:0"/>
    </vehicle>
    <vehicle id="505" depart="50.50">
        <route edges="8:2 2:0 0:1 1:3 3:7"/>
    </vehicle>
    <vehicle id="507" depart="50.70">
        <route edges="6:5 5:1 1:3"/>
    </vehicle>
    <vehicle id="510" depart="51.00">
        <route edges="7:3 3:1 1:0 0:2 2:8"/>
    </vehicle>
    <vehicle id="511" depart="51.10">
        <route edges="6:5 5:1 1:0 0:2"/>
    </vehicle>
    <vehicle id="513" depart="51.30">
        <route edges="1:0 0:9"/>
    </vehicle>
    <vehicle id="514" depart="51.40">
        <route edges="10:9 9:0 0:2"/>
    </vehicle>
    <vehicle id="518" depart="51.80">
        <route edges="8:2 2:0 0:1 1:3 3:7"/>
    </vehicle>
    <vehicle id="520" depart="52.00">
        <route edges="5:1 1:3 3:7"/>
    </vehicle>
    <vehicle id="526" depart="52.60">
        <route edges="0:1 1:3 3:7"/>
    </vehicle>
    <vehicle id="529" depart="52.90">
        <route edges="1:0 0:9 9:10"/>
    </vehicle>
    <vehicle id="531" depart="53.10">
        <route edges="2:0 0:1 1:3 3:7"/>
    </vehicle>
    <vehicle id="532" depart="53.20">
        <route edges="8:2 2:0 0:1 1:3"/>
    </vehicle>
    <vehicle id="535" depart="53.50">
        <route edges="8:2 2:0"/>
    </vehicle>
    <vehicle id="537" depart="53.70">
        <route edges="3:1 1:0 0:2 2:8"/>
    </vehicle>
    <vehicle id="538" depart="53.80">
        <route edges="0:1"/>
    </vehicle>
    <vehicle id="540" depart="54.00">
        <route edges="3:1 1:0 0:2"/>
    </vehicle>
    <vehicle id="541" depart="54.10">
        <route edges="9:0 0:2 2:8"/>
    </vehicle>
    <vehicle id="542" depart="54.20">
        <route edges="7:3 3:1 1:0 0:9 9:10"/>
    </vehicle>
    <vehicle id="544" depart="54.40">
        <route edges="5:1 1:0 0:2"/>
    </vehicle>
    <vehicle id="547" depart="54.70">
        <route edges="7:3 3:1"/>
    </vehicle>
    <vehicle id="549" depart="54.90">
        <route edges="1:5"/>
    </vehicle>
    <vehicle id="552" depart="55.20">
        <route edges="8:2 2:0 0:9 9:10"/>
    </vehicle>
    <vehicle id="553" depart="55.30">
        <route edges="1:3 3:7"/>
    </vehicle>
    <vehicle id="555" depart="55.50">
        <route edges="8:2 2:0 0:1 1:5 5:6"/>
    </vehicle>
    <vehicle id="557" depart="55.70">
        <route edges="8:2 2:0 0:1 1:5"/>
    </vehicle>
    <vehicle id="561" depart="56.10">
        <route edges="8:2 2:0 0:1 1:3"/>
    </vehicle>
    <vehicle id="562" depart="56.20">
        <route edges="7:3 3:1 1:0 0:2"/>
    </vehicle>
    <vehicle id="566" depart="56.60">
        <route edges="8:2 2:0 0:1 1:3 3:7"/>
    </vehicle>
    <vehicle id="568" depart="56.80">
        <route edges="7:3 3:1 1:0 0:9 9:10"/>
    </vehicle>
    <vehicle id="570" depart="57.00">
        <route edges="5:1 1:3"/>
    </vehicle>
    <vehicle id="571" depart="57.10">
        <route edges="10:9 9:0 0:1 1:3 3:7"/>
    </vehicle>
    <vehicle id="574" depart="57.40">
        <route edges="7:3 3:1 1:0 0:2"/>
    </vehicle>
    <vehicle id="575" depart="57.50">
        <route edges="8:2 2:0 0:1 1:5"/>
    </vehicle>
    <vehicle id="576" depart="57.60">
        <route edges="9:0 0:1 1:3 3:7"/>
    </vehicle>
    <vehicle id="578" depart="57.80">
        <route edges="6:5 5:1 1:3 3:7"/>
    </vehicle>
    <vehicle id="580" depart="58.00">
        <route edges="7:3 3:1 1:0 0:2 2:8"/>
    </vehicle>
    <vehicle id="581" depart="58.10">
        <route edges="3:1"/>
    </vehicle>
    <vehicle id="584" depart="58.40">
        <route edges="10:9 9:0 0:1 1:5 5:6"/>
    </vehicle>
    <vehicle id="585" depart="58.50">
        <route edges="10:9 9:0 0:2 2:8"/>
    </vehicle>
    <vehicle id="587" depart="58.70">
        <route edges="1:5 5:6"/>
    </vehicle>
    <vehicle id="589" depart="58.90">
        <route edges="2:0 0:1 1:3 3:7"/>
    </vehicle>
    <vehicle id="590" depart="59.00">
        <route edges="10:9 9:0 0:1 1:5 5:6"/>
    </vehicle>
    <vehicle id="591" depart="59.10">
        <route edges="8:2 2:0 0:1 1:5"/>
    </vehicle>
    <vehicle id="593" depart="59.30">
        <route edges="6:5 5:1"/>
    </vehicle>
    <vehicle id="595" depart="59.50">
        <route edges="5:1 1:3"/>
    </vehicle>
    <vehicle id="597" depart="59.70">
        <route edges="7:3 3:1 1:0 0:2"/>
    </vehicle>
    <vehicle id="599" depart="59.90">
        <route edges="7:3 3:1 1:0 0:9"/>
    </vehicle>
    <vehicle id="603" depart="60.30">
        <route edges="3:1 1:0"/>
    </vehicle>
    <vehicle id="604" depart="60.40">
        <route edges="0:1"/>
    </vehicle>
    <vehicle id="605" depart="60.50">
        <route edges="3:1 1:0 0:9"/>
    </vehicle>
    <vehicle id="606" depart="60.60">
        <route edges="5:1 1:0 0:2"/>
    </vehicle>
    <vehicle id="607" depart="60.70">
        <route edges="5:1 1:3 3:7"/>
    </vehicle>
    <vehicle id="608" depart="60.80">
        <route edges="7:3 3:1 1:0 0:2 2:8"/>
    </vehicle>
    <vehicle id="611" depart="61.10">
        <route edges="10:9 9:0 0:1 1:5"/>
    </vehicle>
    <vehicle id="612" depart="61.20">
        <route edges="6:5 5:1 1:0 0:2 2:8"/>
    </vehicle>
    <vehicle id="614" depart="61.40">
        <route edges="0:1 1:3 3:7"/>
    </vehicle>
    <vehicle id="615" depart="61.50">
        <route edges="2:0 0:1 1:3 3:7"/>
    </vehicle>
    <vehicle id="616" depart="61.60">
        <route edges="9:0 0:1 1:3 3:7"/>
    </vehicle>
    <vehicle id="617" depart="61.70">
        <route edges="5:1 1:0 0:9 9:10"/>
    </vehicle>
    <vehicle id="626" depart="62.60">
        <route edges="8:2 2:0 0:1 1:5 5:6"/>
    </vehicle>
    <vehicle id="629" depart="62.90">
        <route edges="7:3 3:1 1:0 0:2 2:8"/>
    </vehicle>
    <vehicle id="633" depart="63.30">
        <route edges="9:0 0:2"/>
    </vehicle>
    <vehicle id="639" depart="63.90">