<?xml version="1.0" encoding="UTF-8"?>

<!-- generated on Thu Feb 13 14:15:31 2014 by SUMO duarouter Version 0.18.0
<?xml version="1.0" encoding="UTF-8"?>

<configuration xmlns:xsi="http://www.w3.org/2001/XMLSchema-instance" xsi:noNamespaceSchemaLocation="http://sumo.sf.net/xsd/duarouterConfiguration.xsd">

    <input>
        <net-file value="twinT.net.xml"/>
        <trip-files value="experimentos/twinT.p0.4.1.trips.xml"/>
    </input>

    <output>
        <output-file value="experimentos/twinT.p0.4.1.rou.xml"/>
    </output>

    <processing>
        <ignore-errors value="true"/>
    </processing>

    <random_number>
        <random value="true"/>
    </random_number>

</configuration>
-->

<routes xmlns:xsi="http://www.w3.org/2001/XMLSchema-instance" xsi:noNamespaceSchemaLocation="http://sumo.sf.net/xsd/routes_file.xsd">
    <vehicle id="1" depart="0.40">
        <route edges="7:3 3:1 1:5"/>
    </vehicle>
    <vehicle id="4" depart="1.60">
        <route edges="7:3 3:1 1:0 0:2 2:8"/>
    </vehicle>
    <vehicle id="6" depart="2.40">
        <route edges="8:2 2:0"/>
    </vehicle>
    <vehicle id="7" depart="2.80">
        <route edges="0:2 2:8"/>
    </vehicle>
    <vehicle id="12" depart="4.80">
        <route edges="8:2 2:0 0:1 1:3"/>
    </vehicle>
    <vehicle id="15" depart="6.00">
        <route edges="10:9 9:0 0:1 1:3 3:7"/>
    </vehicle>
    <vehicle id="17" depart="6.80">
        <route edges="8:2 2:0 0:9"/>
    </vehicle>
    <vehicle id="18" depart="7.20">
        <route edges="5:1 1:0"/>
    </vehicle>
    <vehicle id="20" depart="8.00">
        <route edges="3:1 1:0 0:2 2:8"/>
    </vehicle>
    <vehicle id="22" depart="8.80">
        <route edges="10:9 9:0 0:1 1:3"/>
    </vehicle>
    <vehicle id="23" depart="9.20">
        <route edges="6:5 5:1 1:0 0:2 2:8"/>
    </vehicle>
    <vehicle id="27" depart="10.80">
        <route edges="5:1 1:0 0:9 9:10"/>
    </vehicle>
    <vehicle id="28" depart="11.20">
        <route edges="2:0 0:1 1:3 3:7"/>
    </vehicle>
    <vehicle id="31" depart="12.40">
        <route edges="8:2 2:0 0:1 1:3 3:7"/>
    </vehicle>
    <vehicle id="32" depart="12.80">
        <route edges="7:3 3:1"/>
    </vehicle>
    <vehicle id="33" depart="13.20">
        <route edges="7:3 3:1 1:0 0:2 2:8"/>
    </vehicle>
    <vehicle id="34" depart="13.60">
        <route edges="6:5 5:1 1:0 0:9 9:10"/>
    </vehicle>
    <vehicle id="35" depart="14.00">
        <route edges="8:2 2:0 0:1 1:3 3:7"/>
    </vehicle>
    <vehicle id="38" depart="15.20">
        <route edges="6:5 5:1 1:3 3:7"/>
    </vehicle>
    <vehicle id="39" depart="15.60">
        <route edges="3:1 1:0"/>
    </vehicle>
    <vehicle id="40" depart="16.00">
        <route edges="2:0 0:1 1:3 3:7"/>
    </vehicle>
    <vehicle id="41" depart="16.40">
        <route edges="6:5 5:1 1:0 0:9"/>
    </vehicle>
    <vehicle id="43" depart="17.20">
        <route edges="3:1 1:0 0:2 2:8"/>
    </vehicle>
    <vehicle id="45" depart="18.00">
        <route edges="1:3 3:7"/>
    </vehicle>
    <vehicle id="49" depart="19.60">
        <route edges="1:3 3:7"/>
    </vehicle>
    <vehicle id="50" depart="20.00">
        <route edges="0:1 1:3 3:7"/>
    </vehicle>
    <vehicle id="51" depart="20.40">
        <route edges="3:1 1:0 0:2 2:8"/>
    </vehicle>
    <vehicle id="52" depart="20.80">
        <route edges="8:2 2:0 0:1 1:3 3:7"/>
    </vehicle>
    <vehicle id="53" depart="21.20">
        <route edges="7:3 3:1 1:0 0:2 2:8"/>
    </vehicle>
    <vehicle id="58" depart="23.20">
        <route edges="2:0 0:1 1:3"/>
    </vehicle>
    <vehicle id="60" depart="24.00">
        <route edges="2:0 0:1 1:3"/>
    </vehicle>
    <vehicle id="62" depart="24.80">
        <route edges="7:3 3:1 1:0 0:2"/>
    </vehicle>
    <vehicle id="63" depart="25.20">
        <route edges="2:0 0:1 1:5 5:6"/>
    </vehicle>
    <vehicle id="64" depart="25.60">
        <route edges="8:2 2:0 0:1 1:3"/>
    </vehicle>
    <vehicle id="67" depart="26.80">
        <route edges="7:3 3:1 1:0 0:2"/>
    </vehicle>
    <vehicle id="68" depart="27.20">
        <route edges="8:2 2:0 0:9 9:10"/>
    </vehicle>
    <vehicle id="70" depart="28.00">
        <route edges="2:0 0:1 1:3"/>
    </vehicle>
    <vehicle id="71" depart="28.40">
        <route edges="5:1 1:3"/>
    </vehicle>
    <vehicle id="72" depart="28.80">
        <route edges="2:0"/>
    </vehicle>
    <vehicle id="73" depart="29.20">
        <route edges="8:2 2:0 0:1"/>
    </vehicle>
    <vehicle id="75" depart="30.00">
        <route edges="8:2 2:0 0:9 9:10"/>
    </vehicle>
    <vehicle id="76" depart="30.40">
        <route edges="7:3 3:1 1:0 0:2 2:8"/>
    </vehicle>
    <vehicle id="78" depart="31.20">
        <route edges="8:2 2:0 0:1"/>
    </vehicle>
    <vehicle id="81" depart="32.40">
        <route edges="10:9 9:0 0:1 1:5 5:6"/>
    </vehicle>
    <vehicle id="85" depart="34.00">
        <route edges="6:5 5:1 1:0 0:2"/>
    </vehicle>
    <vehicle id="90" depart="36.00">
        <route edges="3:1 1:0 0:2 2:8"/>
    </vehicle>
    <vehicle id="91" depart="36.40">
        <route edges="3:1"/>
    </vehicle>
    <vehicle id="92" depart="36.80">
        <route edges="6:5 5:1 1:0 0:2 2:8"/>
    </vehicle>
    <vehicle id="94" depart="37.60">
        <route edges="7:3 3:1 1:0"/>
    </vehicle>
    <vehicle id="98" depart="39.20">
        <route edges="10:9 9:0 0:2 2:8"/>
    </vehicle>
    <vehicle id="99" depart="39.60">
        <route edges="8:2 2:0 0:1 1:3"/>
    </vehicle>
    <vehicle id="106" depart="42.40">
        <route edges="5:1 1:0 0:2"/>
    </vehicle>
    <vehicle id="107" depart="42.80">
        <route edges="0:1 1:3 3:7"/>
    </vehicle>
    <vehicle id="108" depart="43.20">
        <route edges="8:2 2:0"/>
    </vehicle>
    <vehicle id="111" depart="44.40">
        <route edges="6:5 5:1 1:3"/>
    </vehicle>
    <vehicle id="112" depart="44.80">
        <route edges="10:9 9:0 0:1 1:3"/>
    </vehicle>
    <vehicle id="113" depart="45.20">
        <route edges="7:3 3:1 1:0 0:2"/>
    </vehicle>
    <vehicle id="119" depart="47.60">
        <route edges="0:1 1:5 5:6"/>
    </vehicle>
    <vehicle id="120" depart="48.00">
        <route edges="7:3 3:1 1:0 0:2"/>
    </vehicle>
    <vehicle id="121" depart="48.40">
        <route edges="7:3 3:1 1:0 0:9"/>
    </vehicle>
    <vehicle id="123" depart="49.20">
        <route edges="3:1 1:0 0:9 9:10"/>
    </vehicle>
    <vehicle id="127" depart="50.80">
        <route edges="8:2 2:0 0:1 1:3"/>
    </vehicle>
    <vehicle id="128" depart="51.20">
        <route edges="9:0 0:2 2:8"/>
    </vehicle>
    <vehicle id="129" depart="51.60">
        <route edges="7:3 3:1 1:5 5:6"/>
    </vehicle>
    <vehicle id="131" depart="52.40">
        <route edges="2:0 0:1 1:3"/>
    </vehicle>
    <vehicle id="133" depart="53.20">
        <route edges="1:0 0:9 9:10"/>
    </vehicle>
    <vehicle id="139" depart="55.60">
        <route edges="8:2 2:0 0:1 1:5 5:6"/>
    </vehicle>
    <vehicle id="142" depart="56.80">
        <route edges="6:5 5:1 1:0"/>
    </vehicle>
    <vehicle id="143" depart="57.20">
        <route edges="10:9 9:0 0:2"/>
    </vehicle>
    <vehicle id="144" depart="57.60">
        <route edges="8:2 2:0 0:1 1:3"/>
    </vehicle>
    <vehicle id="145" depart="58.00">
        <route edges="8:2 2:0 0:1 1:3"/>
    </vehicle>
    <vehicle id="149" depart="59.60">
        <route edges="3:1 1:5 5:6"/>
    </vehicle>
    <vehicle id="150" depart="60.00">
        <route edges="7:3 3:1"/>
    </vehicle>
    <vehicle id="152" depart="60.80">
        <route edges="7:3 3:1 1:5 5:6"/>
    </vehicle>
    <vehicle id="153" depart="61.20">
        <route edges="7:3 3:1 1:0 0:2 2:8"/>
    </vehicle>
    <vehicle id="155" depart="62.00">
        <route edges="10:9 9:0 0:1 1:3 3:7"/>
    </vehicle>
    <vehicle id="156" depart="62.40">
        <route edges="2:0 0:1 1:3 3:7"/>
    </vehicle>
    <vehicle id="159" depart="63.60">
        <route edges="8:2 2:0 0:1"/>
    </vehicle>
    <vehicle id="166" depart="66.40">
        <route edges="5:1"/>
    </vehicle>
    <vehicle id="168" depart="67.20">
        <route edges="10:9 9:0 0:1 1:5 5:6"/>
    </vehicle>
    <vehicle id="169" depart="67.60">
        <route edges="8:2 2:0 0:9"/>
    </vehicle>
    <vehicle id="170" depart="68.00">
        <route edges="10:9 9:0 0:2"/>
    </vehicle>
    <vehicle id="171" depart="68.40">
        <route edges="3:1 1:0 0:2 2:8"/>
    </vehicle>
    <vehicle id="173" depart="69.20">
        <route edges="5:1"/>
    </vehicle>
    <vehicle id="174" depart="69.60">
        <route edges="3:1 1:0 0:9 9:10"/>
    </vehicle>
    <vehicle id="177" depart="70.80">
        <route edges="0:1 1:3 3:7"/>
    </vehicle>
    <vehicle id="181" depart="72.40">
        <route edges="6:5 5:1 1:0 0:2 2:8"/>
    </vehicle>
    <vehicle id="182" depart="72.80">
        <route edges="10:9 9:0 0:1 1:5"/>
    </vehicle>
    <vehicle id="183" depart="73.20">
        <route edges="10:9 9:0 0:1"/>
    </vehicle>
    <vehicle id="188" depart="75.20">
        <route edges="8:2 2:0 0:9 9:10"/>
    </vehicle>
    <vehicle id="189" depart="75.60">
        <route edges="10:9 9:0"/>
    </vehicle>
    <vehicle id="194" depart="77.60">
        <route edges="2:0 0:1 1:3 3:7"/>
    </vehicle>
    <vehicle id="195" depart="78.00">
        <route edges="7:3 3:1 1:0 0:2 2:8"/>
    </vehicle>
    <vehicle id="196" depart="78.40">
        <route edges="2:0 0:1 1:5"/>
    </vehicle>
    <vehicle id="197" depart="78.80">
        <route edges="2:0 0:1 1:3 3:7"/>
    </vehicle>
    <vehicle id="199" depart="79.60">
        <route edges="3:1 1:0 0:2 2:8"/>
    </vehicle>
    <vehicle id="202" depart="80.80">
        <route edges="0:2 2:8"/>
    </vehicle>
    <vehicle id="203" depart="81.20">
        <route edges="3:1 1:0 0:2 2:8"/>
    </vehicle>
    <vehicle id="205" depart="82.00">
        <route edges="5:1 1:3"/>
    </vehicle>
    <vehicle id="206" depart="82.40">
        <route edges="3:1 1:0 0:9 9:10"/>
    </vehicle>
    <vehicle id="207" depart="82.80">
        <route edges="10:9 9:0 0:1 1:3 3:7"/>
    </vehicle>
    <vehicle id="209" depart="83.60">
        <route edges="6:5 5:1 1:0 0:2"/>
    </vehicle>
    <vehicle id="210" depart="84.00">
        <route edges="7:3 3:1 1:0 0:2 2:8"/>
    </vehicle>
    <vehicle id="211" depart="84.40">
        <route edges="3:1 1:0"/>
    </vehicle>
    <vehicle id="212" depart="84.80">
        <route edges="7:3 3:1 1:5"/>
    </vehicle>
    <vehicle id="214" depart="85.60">
        <route edges="10:9 9:0 0:2 2:8"/>
    </vehicle>
    <vehicle id="218" depart="87.20">
        <route edges="8:2 2:0"/>
    </vehicle>
    <vehicle id="221" depart="88.40">
        <route edges="9:0 0:1 1:3"/>
    </vehicle>
    <vehicle id="222" depart="88.80">
        <route edges="0:1 1:3 3:7"/>
    </vehicle>
    <vehicle id="224" depart="89.60">
        <route edges="8:2 2:0 0:1 1:3"/>
    </vehicle>
    <vehicle id="225" depart="90.00">
        <route edges="1:3"/>
    </vehicle>
    <vehicle id="229" depart="91.60">
        <route edges="7:3 3:1 1:0 0:2 2:8"/>
    </vehicle>
    <vehicle id="230" depart="92.00">
        <route edges="8:2 2:0 0:9"/>
    </vehicle>
    <vehicle id="233" depart="93.20">
        <route edges="8:2 2:0 0:1 1:5 5:6"/>
    </vehicle>
    <vehicle id="234" depart="93.60">
        <route edges="0:1 1:3 3:7"/>
    </vehicle>
    <vehicle id="240" depart="96.00">
        <route edges="2:0 0:1 1:5 5:6"/>
    </vehicle>
    <vehicle id="243" depart="97.20">
        <route edges="8:2 2:0 0:1 1:5 5:6"/>
    </vehicle>
    <vehicle id="245" depart="98.00">
        <route edges="2:0 0:9 9:10"/>
    </vehicle>
    <vehicle id="246" depart="98.40">
        <route edges="6:5 5:1 1:0 0:9 9:10"/>
    </vehicle>
    <vehicle id="247" depart="98.80">
        <route edges="8:2 2:0 0:1 1:3 3:7"/>
    </vehicle>
    <vehicle id="249" depart="99.60">
        <route edges="8:2 2:0 0:1 1:3 3:7"/>
    </vehicle>
    <vehicle id="250" depart="100.00">
        <route edges="0:2"/>
    </vehicle>
    <vehicle id="253" depart="101.20">
        <route edges="8:2 2:0 0:1 1:3 3:7"/>
    </vehicle>
    <vehicle id="254" depart="101.60">
        <route edges="7:3 3:1 1:0 0:2"/>
    </vehicle>
    <vehicle id="255" depart="102.00">
        <route edges="0:2"/>
    </vehicle>
    <vehicle id="256" depart="102.40">
        <route edges="5:1 1:3 3:7"/>
    </vehicle>
    <vehicle id="258" depart="103.20">
        <route edges="3:1 1:0 0:9 9:10"/>
    </vehicle>
    <vehicle id="261" depart="104.40">
        <route edges="0:2"/>
    </vehicle>
    <vehicle id="263" depart="105.20">
        <route edges="6:5 5:1 1:0"/>
    </vehicle>
    <vehicle id="264" depart="105.60">
        <route edges="8:2 2:0 0:9 9:10"/>
    </vehicle>
    <vehicle id="265" depart="106.00">
        <route edges="10:9 9:0 0:1 1:3"/>
    </vehicle>
    <vehicle id="268" depart="107.20">
        <route edges="0:2 2:8"/>
    </vehicle>
    <vehicle id="275" depart="110.00">
        <route edges="1:3"/>
    </vehicle>
    <vehicle id="276" depart="110.40">
        <route edges="8:2 2:0 0:1"/>
    </vehicle>
    <vehicle id="277" depart="110.80">
        <route edges="7:3 3:1 1:0 0:2 2:8"/>
    </vehicle>
    <vehicle id="278" depart="111.20">
        <route edges="7:3 3:1 1:0 0:9 9:10"/>
    </vehicle>
    <vehicle id="280" depart="112.00">
        <route edges="8:2 2:0 0:1 1:5 5:6"/>
    </vehicle>
    <vehicle id="281" depart="112.40">
        <route edges="0:2 2:8"/>
    </vehicle>
    <vehicle id="282" depart="112.80">
        <route edges="1:0 0:2"/>
    </vehicle>
    <vehicle id="283" depart="113.20">
        <route edges="0:1 1:3"/>
    </vehicle>
    <vehicle id="286" depart="114.40">
        <route edges="10:9 9:0 0:1 1:3 3:7"/>
    </vehicle>
    <vehicle id="290" depart="116.00">
        <route edges="1:3 3:7"/>
    </vehicle>
    <vehicle id="293" depart="117.20">
        <route edges="0:2 2:8"/>
    </vehicle>
    <vehicle id="294" depart="117.60">
        <route edges="8:2 2:0 0:9"/>
    </vehicle>
    <vehicle id="297" depart="118.80">
        <route edges="8:2 2:0 0:1 1:3 3:7"/>
    </vehicle>
    <vehicle id="298" depart="119.20">
        <route edges="1:3 3:7"/>
    </vehicle>
    <vehicle id="301" depart="120.40">
        <route edges="7:3 3:1 1:5 5:6"/>
    </vehicle>
    <vehicle id="308" depart="123.20">
        <route edges="10:9 9:0 0:2 2:8"/>
    </vehicle>
    <vehicle id="309" depart="123.60">
        <route edges="0:1"/>
    </vehicle>
    <vehicle id="310" depart="124.00">
        <route edges="7:3 3:1 1:0 0:2"/>
    </vehicle>
    <vehicle id="315" depart="126.00">
        <route edges="8:2 2:0 0:9"/>
    </vehicle>
    <vehicle id="316" depart="126.40">
        <route edges="6:5 5:1 1:0 0:2 2:8"/>
    </vehicle>
    <vehicle id="318" depart="127.20">
        <route edges="8:2 2:0 0:1 1:5 5:6"/>
    </vehicle>
    <vehicle id="322" depart="128.80">
        <route edges="6:5 5:1 1:3 3:7"/>
    </vehicle>
    <vehicle id="323" depart="129.20">
        <route edges="3:1 1:0"/>
    </vehicle>
    <vehicle id="324" depart="129.60">
        <route edges="9:0 0:1 1:5"/>
    </vehicle>
    <vehicle id="327" depart="130.80">
        <route edges="3:1 1:0 0:2 2:8"/>
    </vehicle>
    <vehicle id="328" depart="131.20">
        <route edges="5:1 1:0 0:2"/>
    </vehicle>
    <vehicle id="329" depart="131.60">
        <route edges="2:0 0:9"/>
    </vehicle>
    <vehicle id="330" depart="132.00">
        <route edges="5:1 1:3 3:7"/>
    </vehicle>
    <vehicle id="332" depart="132.80">
        <route edges="8:2 2:0 0:9 9:10"/>
    </vehicle>
    <vehicle id="334" depart="133.60">
        <route edges="2:0 0:9"/>
    </vehicle>
    <vehicle id="337" depart="134.80">
        <route edges="10:9 9:0 0:1 1:3 3:7"/>
    </vehicle>
    <vehicle id="338" depart="135.20">
        <route edges="8:2 2:0"/>
    </vehicle>
    <vehicle id="341" depart="136.40">
        <route edges="3:1 1:0 0:2"/>
    </vehicle>
    <vehicle id="347" depart="138.80">
        <route edges="3:1 1:0 0:9"/>
    </vehicle>
    <vehicle id="351" depart="140.40">
        <route edges="1:0 0:2"/>
    </vehicle>
    <vehicle id="356" depart="142.40">
        <route edges="6:5 5:1 1:0 0:9 9:10"/>
    </vehicle>
    <vehicle id="357" depart="142.80">
        <route edges="7:3 3:1 1:0 0:9 9:10"/>
    </vehicle>
    <vehicle id="358" depart="143.20">
        <route edges="5:1 1:3 3:7"/>
    </vehicle>
    <vehicle id="360" depart="144.00">
        <route edges="8:2 2:0 0:1 1:5"/>
    </vehicle>
    <vehicle id="361" depart="144.40">
        <route edges="9:0 0:2 2:8"/>
    </vehicle>
    <vehicle id="363" depart="145.20">
        <route edges="7:3 3:1 1:0 0:2 2:8"/>
    </vehicle>
    <vehicle id="365" depart="146.00">
        <route edges="6:5 5:1 1:0"/>
    </vehicle>
    <vehicle id="366" depart="146.40">
        <route edges="1:3 3:7"/>
    </vehicle>
    <vehicle id="367" depart="146.80">
        <route edges="0:1 1:3 3:7"/>
    </vehicle>
    <vehicle id="369" depart="147.60">
        <route edges="2:0 0:1 1:5 5:6"/>
    </vehicle>
    <vehicle id="371" depart="148.40">
        <route edges="0:1 1:3 3:7"/>
    </vehicle>
    <vehicle id="372" depart="148.80">
        <route edges="6:5 5:1 1:0 0:2"/>
    </vehicle>
    <vehicle id="373" depart="149.20">
        <route edges="6:5 5:1 1:3 3:7"/>
    </vehicle>
    <vehicle id="374" depart="149.60">
        <route edges="10:9 9:0 0:1 1:3 3:7"/>
    </vehicle>
    <vehicle id="377" depart="150.80">
        <route edges="9:0 0:2"/>
    </vehicle>
    <vehicle id="378" depart="151.20">
        <route edges="3:1 1:0 0:2"/>
    </vehicle>
    <vehicle id="379" depart="151.60">
        <route edges="7:3 3:1 1:0 0:2 2:8"/>
    </vehicle>
    <vehicle id="380" depart="152.00">
        <route edges="1:5 5:6"/>
    </vehicle>
    <vehicle id="382" depart="152.80">
        <route edges="8:2 2:0 0:1 1:3 3:7"/>
    </vehicle>
    <vehicle id="383" depart="153.20">
        <route edges="7:3 3:1 1:0 0:9"/>
    </vehicle>
    <vehicle id="384" depart="153.60">
        <route edges="8:2 2:0 0:1 1:3"/>
    </vehicle>
    <vehicle id="387" depart="154.80">
        <route edges="1:3"/>
    </vehicle>
    <vehicle id="388" depart="155.20">
        <route edges="2:0 0:9 9:10"/>
    </vehicle>
    <vehicle id="389" depart="155.60">
        <route edges="3:1"/>
    </vehicle>
    <vehicle id="390" depart="156.00">
        <route edges="0:1 1:3 3:7"/>
    </vehicle>
    <vehicle id="393" depart="157.20">
        <route edges="5:1 1:3"/>
    </vehicle>
    <vehicle id="394" depart="157.60">
        <route edges="9:0 0:1 1:5"/>
    </vehicle>
    <vehicle id="395" depart="158.00">
        <route edges="3:1 1:5 5:6"/>
    </vehicle>
    <vehicle id="398" depart="159.20">
        <route edges="1:5 5:6"/>
    </vehicle>
    <vehicle id="399" depart="159.60">
        <route edges="0:1 1:3"/>
    </vehicle>
    <vehicle id="404" depart="161.60">
        <route edges="7:3 3:1 1:5"/>
    </vehicle>
    <vehicle id="405" depart="162.00">
        <route edges="7:3 3:1"/>
    </vehicle>
    <vehicle id="406" depart="162.40">
        <route edges="0:2 2:8"/>
    </vehicle>
    <vehicle id="408" depart="163.20">
        <route edges="10:9 9:0 0:2 2:8"/>
    </vehicle>
    <vehicle id="410" depart="164.00">
        <route edges="7:3 3:1 1:0 0:2 2:8"/>
    </vehicle>
    <vehicle id="411" depart="164.40">
        <route edges="9:0 0:2 2:8"/>
    </vehicle>
    <vehicle id="413" depart="165.20">
        <route edges="10:9 9:0 0:1 1:5"/>
    </vehicle>
    <vehicle id="414" depart="165.60">
        <route edges="8:2 2:0"/>
    </vehicle>
    <vehicle id="416" depart="166.40">
        <route edges="6:5 5:1 1:0 0:2"/>
    </vehicle>
    <vehicle id="420" depart="168.00">
        <route edges="10:9 9:0 0:2 2:8"/>
    </vehicle>
    <vehicle id="422" depart="168.80">
        <route edges="7:3 3:1 1:5 5:6"/>
    </vehicle>
    <vehicle id="423" depart="169.20">
        <route edges="8:2 2:0 0:1 1:3 3:7"/>
    </vehicle>
    <vehicle id="428" depart="171.20">
        <route edges="7:3 3:1 1:0 0:9"/>
    </vehicle>
    <vehicle id="430" depart="172.00">
        <route edges="1:0 0:2 2:8"/>
    </vehicle>
    <vehicle id="432" depart="172.80">
        <route edges="3:1"/>
    </vehicle>
    <vehicle id="434" depart="173.60">
        <route edges="2:0 0:1 1:3 3:7"/>
    </vehicle>
    <vehicle id="435" depart="174.00">
        <route edges="8:2 2:0 0:1"/>
    </vehicle>
    <vehicle id="437" depart="174.80">
        <route edges="3:1 1:0 0:2 2:8"/>
    </vehicle>
    <vehicle id="438" depart="175.20">
        <route edges="8:2 2:0 0:1 1:3 3:7"/>
    </vehicle>
    <vehicle id="439" depart="175.60">
        <route edges="7:3 3:1 1:0 0:9"/>
    </vehicle>
    <vehicle id="440" depart="176.00">
        <route edges="8:2 2:0 0:1 1:3 3:7"/>
    </vehicle>
    <vehicle id="442" depart="176.80">
        <route edges="8:2 2:0 0:1 1:3"/>
    </vehicle>
    <vehicle id="443" depart="177.20">
        <route edges="8:2 2:0 0:1"/>
    </vehicle>
    <vehicle id="444" depart="177.60">
        <route edges="7:3 3:1 1:0 0:9 9:10"/>
    </vehicle>
    <vehicle id="447" depart="178.80">
        <route edges="3:1 1:0 0:2 2:8"/>
    </vehicle>
    <vehicle id="450" depart="180.00">
        <route edges="2:0"/>
    </vehicle>
    <vehicle id="453" depart="181.20">
        <route edges="7:3 3:1 1:0 0:2 2:8"/>
    </vehicle>
    <vehicle id="454" depart="181.60">
        <route edges="8:2 2:0 0:9"/>
    </vehicle>
    <vehicle id="455" depart="182.00">
        <route edges="9:0 0:1 1:3 3:7"/>
    </vehicle>
    <vehicle id="456" depart="182.40">
        <route edges="0:2 2:8"/>
    </vehicle>
    <vehicle id="457" depart="182.80">
        <route edges="9:0 0:2 2:8"/>
    </vehicle>
    <vehicle id="458" depart="183.20">
        <route edges="0:1 1:3"/>
    </vehicle>
    <vehicle id="460" depart="184.00">
        <route edges="5:1 1:0 0:2"/>
    </vehicle>
    <vehicle id="461" depart="184.40">
        <route edges="10:9 9:0 0:2 2:8"/>
    </vehicle>
    <vehicle id="462" depart="184.80">
        <route edges="2:0 0:9 9:10"/>
    </vehicle>
    <vehicle id="463" depart="185.20">
        <route edges="9:0 0:2 2:8"/>
    </vehicle>
    <vehicle id="464" depart="185.60">
        <route edges="3:1 1:5 5:6"/>
    </vehicle>
    <vehicle id="466" depart="186.40">
        <route edges="1:0 0:2 2:8"/>
    </vehicle>
    <vehicle id="471" depart="188.40">
        <route edges="1:0 0:2 2:8"/>
    </vehicle>
    <vehicle id="475" depart="190.00">
        <route edges="7:3 3:1 1:5"/>
    </vehicle>
    <vehicle id="480" depart="192.00">
        <route edges="2:0 0:1 1:3 3:7"/>
    </vehicle>
    <vehicle id="481" depart="192.40">
        <route edges="1:3"/>
    </vehicle>
    <vehicle id="483" depart="193.20">
        <route edges="8:2 2:0 0:1 1:3 3:7"/>
    </vehicle>
    <vehicle id="484" depart="193.60">
        <route edges="5:1 1:0 0:2 2:8"/>
    </vehicle>
    <vehicle id="486" depart="194.40">
        <route edges="6:5 5:1 1:0 0:2 2:8"/>
    </vehicle>
    <vehicle id="487" depart="194.80">
        <route edges="9:0 0:1 1:3 3:7"/>
    </vehicle>
    <vehicle id="488" depart="195.20">
        <route edges="2:0 0:1 1:3 3:7"/>
    </vehicle>
    <vehicle id="490" depart="196.00">
        <route edges="2:0 0:1 1:5"/>
    </vehicle>
    <vehicle id="493" depart="197.20">
        <route edges="7:3 3:1"/>
    </vehicle>
    <vehicle id="494" depart="197.60">
        <route edges="3:1"/>
    </vehicle>
    <vehicle id="498" depart="199.20">
        <route edges="8:2 2:0"/>
    </vehicle>
    <vehicle id="499" depart="199.60">
        <route edges="2:0"/>
    </vehicle>
    <vehicle id="500" depart="200.00">
        <route edges="0:1 1:3 3:7"/>
    </vehicle>
    <vehicle id="501" depart="200.40">
        <route edges="5:1"/>
    </vehicle>
    <vehicle id="502" depart="200.80">
        <route edges="1:5"/>
    </vehicle>
    <vehicle id="503" depart="201.20">
        <route edges="8:2 2:0 0:1 1:5 5:6"/>
    </vehicle>
    <vehicle id="505" depart="202.00">
        <route edges="7:3 3:1 1:0 0:9"/>
    </vehicle>
    <vehicle id="506" depart="202.40">
        <route edges="0:2"/>
    </vehicle>
    <vehicle id="507" depart="202.80">
        <route edges="7:3 3:1 1:0 0:2 2:8"/>
    </vehicle>
    <vehicle id="513" depart="205.20">
        <route edges="8:2 2:0"/>
    </vehicle>
    <vehicle id="515" depart="206.00">
        <route edges="9:0 0:1 1:3 3:7"/>
    </vehicle>
    <vehicle id="518" depart="207.20">
        <route edges="8:2 2:0 0:9"/>
    </vehicle>
    <vehicle id="520" depart="208.00">
        <route edges="3:1 1:0 0:2 2:8"/>
    </vehicle>
    <vehicle id="522" depart="208.80">
        <route edges="5:1 1:3 3:7"/>
    </vehicle>
    <vehicle id="523" depart="209.20">
        <route edges="6:5 5:1 1:3"/>
    </vehicle>
    <vehicle id="528" depart="211.20">
        <route edges="2:0 0:9"/>
    </vehicle>
    <vehicle id="532" depart="212.80">
        <route edges="7:3 3:1 1:0 0:2 2:8"/>
    </vehicle>
    <vehicle id="533" depart="213.20">
        <route edges="2:0 0:1 1:3"/>
    </vehicle>
    <vehicle id="535" depart="214.00">
        <route edges="2:0 0:1 1:5 5:6"/>
    </vehicle>
    <vehicle id="536" depart="214.40">
        <route edges="1:3 3:7"/>
    </vehicle>
    <vehicle id="537" depart="214.80">
        <route edges="7:3 3:1 1:0 0:2 2:8"/>
    </vehicle>
    <vehicle id="538" depart="215.20">
        <route edges="7:3 3:1 1:0 0:2 2:8"/>
    </vehicle>
    <vehicle id="541" depart="216.40">
        <route edges="10:9 9:0 0:1 1:5 5:6"/>
    </vehicle>
    <vehicle id="542" depart="216.80">
        <route edges="0:9 9:10"/>
    </vehicle>
    <vehicle id="550" depart="220.00">
        <route edges="6:5 5:1 1:3 3:7"/>
    </vehicle>
    <vehicle id="551" depart="220.40">
        <route edges="3:1 1:5 5:6"/>
    </vehicle>
    <vehicle id="558" depart="223.20">
        <route edges="8:2 2:0 0:9 9:10"/>
    </vehicle>
    <vehicle id="559" depart="223.60">
        <route edges="1:3"/>
    </vehicle>
    <vehicle id="560" depart="224.00">
        <route edges="8:2 2:0"/>
    </vehicle>
    <vehicle id="561" depart="224.40">
        <route edges="7:3 3:1 1:0 0:2"/>
    </vehicle>
    <vehicle id="562" depart="224.80">
        <route edges="8:2 2:0 0:1 1:5 5:6"/>
    </vehicle>
    <vehicle id="565" depart="226.00">
        <route edges="8:2 2:0 0:1 1:3 3:7"/>
    </vehicle>
    <vehicle id="568" depart="227.20">
        <route edges="3:1 1:5 5:6"/>
    </vehicle>
    <vehicle id="570" depart="228.00">
        <route edges="3:1 1:5"/>
    </vehicle>
    <vehicle id="572" depart="228.80">
        <route edges="3:1 1:5 5:6"/>
    </vehicle>
    <vehicle id="576" depart="230.40">
        <route edges="9:0 0:2 2:8"/>
    </vehicle>
    <vehicle id="579" depart="231.60">
        <route edges="2:0 0:1"/>
    </vehicle>
    <vehicle id="580" depart="232.00">
        <route edges="7:3 3:1 1:0 0:9"/>
    </vehicle>
    <vehicle id="585" depart="234.00">
        <route edges="6:5 5:1 1:0 0:9 9:10"/>
    </vehicle>
    <vehicle id="588" depart="235.20">
        <route edges="7:3 3:1 1:0 0:2 2:8"/>
    </vehicle>
    <vehicle id="591" depart="236.40">
        <route edges="8:2 2:0 0:1 1:5"/>
    </vehicle>
    <vehicle id="592" depart="236.80">
        <route edges="7:3 3:1 1:5 5:6"/>
    </vehicle>
    <vehicle id="593" depart="237.20">
        <route edges="7:3 3:1 1:5 5:6"/>
    </vehicle>
    <vehicle id="595" depart="238.00">
        <route edges="8:2 2:0 0:1 1:3 3:7"/>
    </vehicle>
    <vehicle id="599" depart="239.60">
        <route edges="8:2 2:0 0:1 1:3 3:7"/>
    </vehicle>
    <vehicle id="600" depart="240.00">
        <route edges="5:1 1:3 3:7"/>
    </vehicle>
    <vehicle id="601" depart="240.40">
        <route edges="0:2 2:8"/>
    </vehicle>
    <vehicle id="607" depart="242.80">
        <route edges="7:3 3:1 1:0 0:9"/>
    </vehicle>
    <vehicle id="608" depart="243.20">
        <route edges="1:3"/>
    </vehicle>
    <vehicle id="611" depart="244.40">
        <route edges="1:3 3:7"/>
    </vehicle>
    <vehicle id="612" depart="244.80">
        <route edges="7:3 3:1 1:0 0:2 2:8"/>
    </vehicle>
    <vehicle id="613" depart="245.20">
        <route edges="2:0 0:1 1:5 5:6"/>
    </vehicle>
    <vehicle id="624" depart="249.60">
        <route edges="1:3 3:7"/>
    </vehicle>
    <vehicle id="625" depart="250.00">
        <route edges="8:2 2:0 0:1 1:3 3:7"/>
    </vehicle>
    <vehicle id="627" depart="250.80">
        <route edges="6:5 5:1 1:0 0:2 2:8"/>
    </vehicle>
    <vehicle id="628" depart="251.20">
        <route edges="9:0 0:1 1:3 3:7"/>
    </vehicle>
    <vehicle id="630" depart="252.00">
        <route edges="0:2 2:8"/>
    </vehicle>
    <vehicle id="631" depart="252.40">
        <route edges="2:0 0:1 1:3"/>
    </vehicle>
    <vehicle id="633" depart="253.20">
        <route edges="8:2 2:0 0:9"/>
    </vehicle>
    <vehicle id="634" depart="253.60">
        <route edges="7:3 3:1 1:0 0:2"/>
    </vehicle>
    <vehicle id="635" depart="254.00">
        <route edges="0:1 1:3 3:7"/>
    </vehicle>
    <vehicle id="637" depart="254.80">
        <route edges="3:1 1:0 0:2 2:8"/>
    </vehicle>
    <vehicle id="638" depart="255.20">
        <route edges="6:5 5:1 1:0 0:2 2:8"/>
    </vehicle>
    <vehicle id="639" depart="255.60">
        <route edges="8:2 2:0 0:1 1:5"/>
    </vehicle>
    <vehicle id="640" depart="256.00">
        <route edges="9:0 0:1 1:3 3:7"/>
    </vehicle>
    <vehicle id="641" depart="256.40">
        <route edges="0:9 9:10"/>
    </vehicle>
    <vehicle id="646" depart="258.40">
        <route edges="8:2 2:0 0:1 1:3"/>
    </vehicle>
    <vehicle id="650" depart="260.00">
        <route edges="2:0 0:1 1:3 3:7"/>
    </vehicle>
    <vehicle id="652" depart="260.80">
        <route edges="0:2"/>
    </vehicle>