<?xml version="1.0" encoding="UTF-8"?>

<!-- generated on Thu Oct 23 22:34:28 2014 by SUMO duarouter Version 0.18.0
<?xml version="1.0" encoding="UTF-8"?>

<configuration xmlns:xsi="http://www.w3.org/2001/XMLSchema-instance" xsi:noNamespaceSchemaLocation="http://sumo.sf.net/xsd/duarouterConfiguration.xsd">

    <input>
        <net-file value="corridor.net.xml"/>
        <trip-files value="experimentos/corridor.p0.7.1.trips.xml"/>
    </input>

    <output>
        <output-file value="experimentos/corridor.p0.7.1.rou.xml"/>
    </output>

    <processing>
        <ignore-errors value="true"/>
    </processing>

    <random_number>
        <random value="true"/>
    </random_number>

</configuration>
-->

<routes xmlns:xsi="http://www.w3.org/2001/XMLSchema-instance" xsi:noNamespaceSchemaLocation="http://sumo.sf.net/xsd/routes_file.xsd">
    <vehicle id="0" depart="0.00">
        <route edges="7:5 5:3 3:2 2:1 1:0 0:4 4:6"/>
    </vehicle>
    <vehicle id="4" depart="2.80">
        <route edges="18:3 3:5 5:7"/>
    </vehicle>
    <vehicle id="5" depart="3.50">
        <route edges="11:10 10:0 0:1 1:2 2:3"/>
    </vehicle>
    <vehicle id="10" depart="7.00">
        <route edges="7:5 5:3 3:18 18:19"/>
    </vehicle>
    <vehicle id="11" depart="7.70">
        <route edges="12:1 1:2"/>
    </vehicle>
    <vehicle id="14" depart="9.80">
        <route edges="16:3 3:5 5:7"/>
    </vehicle>
    <vehicle id="16" depart="11.20">
        <route edges="18:3 3:2 2:1 1:0"/>
    </vehicle>
    <vehicle id="17" depart="11.90">
        <route edges="7:5 5:3 3:2"/>
    </vehicle>
    <vehicle id="18" depart="12.60">
        <route edges="1:0 0:10 10:11"/>
    </vehicle>
    <vehicle id="19" depart="13.30">
        <route edges="7:5 5:3 3:2 2:1 1:12 12:13"/>
    </vehicle>
    <vehicle id="21" depart="14.70">
        <route edges="11:10 10:0 0:1 1:2 2:3"/>
    </vehicle>
    <vehicle id="23" depart="16.10">
        <route edges="15:14 14:2 2:3 3:5"/>
    </vehicle>
    <vehicle id="24" depart="16.80">
        <route edges="10:0 0:1 1:2 2:3 3:16 16:17"/>
    </vehicle>
    <vehicle id="26" depart="18.20">
        <route edges="11:10 10:0 0:1 1:12 12:13"/>
    </vehicle>
    <vehicle id="28" depart="19.60">
        <route edges="9:8 8:0 0:1 1:2 2:14 14:15"/>
    </vehicle>
    <vehicle id="29" depart="20.30">
        <route edges="0:1 1:2 2:3 3:18 18:19"/>
    </vehicle>
    <vehicle id="30" depart="21.00">
        <route edges="13:12 12:1 1:0 0:8 8:9"/>
    </vehicle>
    <vehicle id="33" depart="23.10">
        <route edges="10:0 0:1 1:2 2:14 14:15"/>
    </vehicle>
    <vehicle id="34" depart="23.80">
        <route edges="13:12 12:1 1:0 0:8"/>
    </vehicle>
    <vehicle id="37" depart="25.90">
        <route edges="11:10 10:0 0:1 1:2 2:14 14:15"/>
    </vehicle>
    <vehicle id="38" depart="26.60">
        <route edges="6:4 4:0 0:10 10:11"/>
    </vehicle>
    <vehicle id="42" depart="29.40">
        <route edges="3:2 2:1"/>
    </vehicle>
    <vehicle id="44" depart="30.80">
        <route edges="2:3 3:5 5:7"/>
    </vehicle>
    <vehicle id="47" depart="32.90">
        <route edges="8:0 0:4 4:6"/>
    </vehicle>
    <vehicle id="49" depart="34.30">
        <route edges="17:16 16:3 3:5"/>
    </vehicle>
    <vehicle id="51" depart="35.70">
        <route edges="0:10 10:11"/>
    </vehicle>
    <vehicle id="52" depart="36.40">
        <route edges="4:0 0:1 1:2 2:14 14:15"/>
    </vehicle>
    <vehicle id="53" depart="37.10">
        <route edges="7:5 5:3 3:2 2:1 1:0 0:4 4:6"/>
    </vehicle>
    <vehicle id="54" depart="37.80">
        <route edges="7:5 5:3 3:2 2:1 1:12 12:13"/>
    </vehicle>
    <vehicle id="55" depart="38.50">
        <route edges="7:5 5:3 3:2 2:14"/>
    </vehicle>
    <vehicle id="56" depart="39.20">
        <route edges="15:14 14:2 2:3 3:5 5:7"/>
    </vehicle>
    <vehicle id="57" depart="39.90">
        <route edges="0:1 1:2 2:3 3:18"/>
    </vehicle>
    <vehicle id="58" depart="40.60">
        <route edges="11:10 10:0 0:1 1:2 2:3 3:18 18:19"/>
    </vehicle>
    <vehicle id="59" depart="41.30">
        <route edges="7:5 5:3"/>
    </vehicle>
    <vehicle id="61" depart="42.70">
        <route edges="4:0"/>
    </vehicle>
    <vehicle id="62" depart="43.40">
        <route edges="9:8 8:0 0:1 1:2 2:3"/>
    </vehicle>
    <vehicle id="64" depart="44.80">
        <route edges="1:0 0:8 8:9"/>
    </vehicle>
    <vehicle id="66" depart="46.20">
        <route edges="6:4 4:0 0:1 1:2 2:14 14:15"/>
    </vehicle>
    <vehicle id="67" depart="46.90">
        <route edges="7:5 5:3 3:2 2:1 1:0 0:8"/>
    </vehicle>
    <vehicle id="69" depart="48.30">
        <route edges="5:3 3:2 2:1 1:12 12:13"/>
    </vehicle>
    <vehicle id="70" depart="49.00">
        <route edges="5:3 3:2 2:14 14:15"/>
    </vehicle>
    <vehicle id="72" depart="50.40">
        <route edges="3:2 2:1 1:0 0:8 8:9"/>
    </vehicle>
    <vehicle id="74" depart="51.80">
        <route edges="6:4 4:0 0:1 1:2 2:3 3:5"/>
    </vehicle>
    <vehicle id="75" depart="52.50">
        <route edges="6:4 4:0 0:1 1:2 2:3 3:5 5:7"/>
    </vehicle>
    <vehicle id="76" depart="53.20">
        <route edges="1:0 0:4 4:6"/>
    </vehicle>
    <vehicle id="80" depart="56.00">
        <route edges="2:3 3:18 18:19"/>
    </vehicle>
    <vehicle id="81" depart="56.70">
        <route edges="6:4 4:0 0:1 1:2 2:14 14:15"/>
    </vehicle>
    <vehicle id="85" depart="59.50">
        <route edges="19:18 18:3 3:2 2:1 1:0 0:10 10:11"/>
    </vehicle>
    <vehicle id="86" depart="60.20">
        <route edges="2:1 1:0 0:8 8:9"/>
    </vehicle>
    <vehicle id="89" depart="62.30">
        <route edges="7:5 5:3 3:2 2:14 14:15"/>
    </vehicle>
    <vehicle id="92" depart="64.40">
        <route edges="13:12 12:1 1:0 0:4 4:6"/>
    </vehicle>
    <vehicle id="93" depart="65.10">
        <route edges="3:2 2:1"/>
    </vehicle>
    <vehicle id="94" depart="65.80">
        <route edges="19:18 18:3 3:2 2:1 1:12 12:13"/>
    </vehicle>
    <vehicle id="97" depart="67.90">
        <route edges="7:5 5:3 3:2 2:1 1:0 0:10 10:11"/>
    </vehicle>
    <vehicle id="101" depart="70.70">
        <route edges="18:3 3:2 2:1 1:0 0:4 4:6"/>
    </vehicle>
    <vehicle id="102" depart="71.40">
        <route edges="17:16 16:3 3:2 2:1 1:0 0:4"/>
    </vehicle>
    <vehicle id="103" depart="72.10">
        <route edges="11:10 10:0 0:1 1:2 2:3 3:5 5:7"/>
    </vehicle>
    <vehicle id="104" depart="72.80">
        <route edges="4:0 0:8 8:9"/>
    </vehicle>
    <vehicle id="105" depart="73.50">
        <route edges="6:4 4:0 0:1 1:2 2:3 3:18 18:19"/>
    </vehicle>
    <vehicle id="108" depart="75.60">
        <route edges="6:4 4:0 0:1 1:2 2:3 3:18 18:19"/>
    </vehicle>
    <vehicle id="110" depart="77.00">
        <route edges="9:8 8:0 0:1 1:2 2:3 3:18 18:19"/>
    </vehicle>
    <vehicle id="111" depart="77.70">
        <route edges="11:10 10:0 0:1 1:2 2:3"/>
    </vehicle>
    <vehicle id="112" depart="78.40">
        <route edges="7:5 5:3 3:2"/>
    </vehicle>
    <vehicle id="113" depart="79.10">
        <route edges="19:18 18:3 3:2 2:1 1:0 0:8"/>
    </vehicle>
    <vehicle id="115" depart="80.50">
        <route edges="5:3 3:2 2:14"/>
    </vehicle>
    <vehicle id="117" depart="81.90">
        <route edges="8:0 0:1 1:12 12:13"/>
    </vehicle>
    <vehicle id="118" depart="82.60">
        <route edges="17:16 16:3 3:5 5:7"/>
    </vehicle>
    <vehicle id="119" depart="83.30">
        <route edges="7:5 5:3 3:2 2:1 1:0 0:4"/>
    </vehicle>
    <vehicle id="121" depart="84.70">
        <route edges="6:4 4:0 0:8 8:9"/>
    </vehicle>
    <vehicle id="123" depart="86.10">
        <route edges="6:4 4:0 0:1 1:2 2:3 3:5 5:7"/>
    </vehicle>
    <vehicle id="124" depart="86.80">
        <route edges="4:0 0:1 1:2"/>
    </vehicle>
    <vehicle id="126" depart="88.20">
        <route edges="7:5 5:3 3:16 16:17"/>
    </vehicle>
    <vehicle id="127" depart="88.90">
        <route edges="17:16 16:3 3:2 2:1 1:0 0:10"/>
    </vehicle>
    <vehicle id="130" depart="91.00">
        <route edges="15:14 14:2 2:1 1:0 0:8"/>
    </vehicle>
    <vehicle id="132" depart="92.40">
        <route edges="15:14 14:2 2:1 1:0 0:10 10:11"/>
    </vehicle>
    <vehicle id="133" depart="93.10">
        <route edges="15:14 14:2 2:1 1:0 0:10 10:11"/>
    </vehicle>
    <vehicle id="134" depart="93.80">
        <route edges="6:4 4:0 0:1 1:2 2:3"/>
    </vehicle>
    <vehicle id="135" depart="94.50">
        <route edges="6:4 4:0 0:8 8:9"/>
    </vehicle>
    <vehicle id="138" depart="96.60">
        <route edges="6:4 4:0 0:1 1:2 2:3 3:16 16:17"/>
    </vehicle>
    <vehicle id="141" depart="98.70">
        <route edges="7:5 5:3 3:2 2:14 14:15"/>
    </vehicle>
    <vehicle id="145" depart="101.50">
        <route edges="9:8 8:0 0:1 1:2 2:3 3:5 5:7"/>
    </vehicle>
    <vehicle id="146" depart="102.20">
        <route edges="17:16 16:3 3:5 5:7"/>
    </vehicle>
    <vehicle id="147" depart="102.90">
        <route edges="0:4 4:6"/>
    </vehicle>
    <vehicle id="148" depart="103.60">
        <route edges="4:0 0:10 10:11"/>
    </vehicle>
    <vehicle id="152" depart="106.40">
        <route edges="17:16 16:3 3:18 18:19"/>
    </vehicle>
    <vehicle id="154" depart="107.80">
        <route edges="10:0 0:1 1:2 2:3 3:16 16:17"/>
    </vehicle>
    <vehicle id="155" depart="108.50">
        <route edges="19:18 18:3 3:16"/>
    </vehicle>
    <vehicle id="158" depart="110.60">
        <route edges="6:4 4:0 0:1 1:2 2:3 3:5 5:7"/>
    </vehicle>
    <vehicle id="159" depart="111.30">
        <route edges="9:8 8:0 0:1 1:12 12:13"/>
    </vehicle>
    <vehicle id="160" depart="112.00">
        <route edges="19:18 18:3 3:2"/>
    </vehicle>
    <vehicle id="162" depart="113.40">
        <route edges="6:4 4:0 0:1 1:2 2:3 3:18 18:19"/>
    </vehicle>
    <vehicle id="166" depart="116.20">
        <route edges="13:12 12:1 1:2 2:3 3:5 5:7"/>
    </vehicle>
    <vehicle id="167" depart="116.90">
        <route edges="0:4 4:6"/>
    </vehicle>
    <vehicle id="169" depart="118.30">
        <route edges="15:14 14:2 2:3 3:5"/>
    </vehicle>
    <vehicle id="170" depart="119.00">
        <route edges="3:2 2:1 1:0 0:4 4:6"/>
    </vehicle>
    <vehicle id="174" depart="121.80">
        <route edges="6:4 4:0"/>
    </vehicle>
    <vehicle id="175" depart="122.50">
        <route edges="15:14 14:2 2:3 3:16 16:17"/>
    </vehicle>
    <vehicle id="176" depart="123.20">
        <route edges="6:4 4:0 0:1 1:2 2:3 3:5 5:7"/>
    </vehicle>
    <vehicle id="177" depart="123.90">
        <route edges="9:8 8:0 0:10 10:11"/>
    </vehicle>
    <vehicle id="178" depart="124.60">
        <route edges="7:5 5:3 3:2 2:1 1:0 0:4 4:6"/>
    </vehicle>
    <vehicle id="179" depart="125.30">
        <route edges="3:16 16:17"/>
    </vehicle>
    <vehicle id="183" depart="128.10">
        <route edges="16:3 3:2 2:1"/>
    </vehicle>
    <vehicle id="185" depart="129.50">
        <route edges="7:5 5:3 3:2 2:14 14:15"/>
    </vehicle>
    <vehicle id="187" depart="130.90">
        <route edges="17:16 16:3 3:2 2:1 1:0 0:10 10:11"/>
    </vehicle>
    <vehicle id="188" depart="131.60">
        <route edges="10:0 0:4 4:6"/>
    </vehicle>
    <vehicle id="189" depart="132.30">
        <route edges="15:14 14:2 2:3 3:16"/>
    </vehicle>
    <vehicle id="190" depart="133.00">
        <route edges="13:12 12:1 1:2 2:14 14:15"/>
    </vehicle>
    <vehicle id="192" depart="134.40">
        <route edges="7:5 5:3 3:16 16:17"/>
    </vehicle>
    <vehicle id="194" depart="135.80">
        <route edges="19:18 18:3 3:2 2:1 1:12 12:13"/>
    </vehicle>
    <vehicle id="196" depart="137.20">
        <route edges="7:5 5:3 3:2 2:1 1:0 0:4 4:6"/>
    </vehicle>
    <vehicle id="197" depart="137.90">
        <route edges="18:3 3:2 2:1 1:0 0:4 4:6"/>
    </vehicle>
    <vehicle id="198" depart="138.60">
        <route edges="7:5 5:3 3:2 2:1 1:0"/>
    </vehicle>
    <vehicle id="199" depart="139.30">
        <route edges="9:8 8:0 0:1 1:2 2:3 3:16 16:17"/>
    </vehicle>
    <vehicle id="200" depart="140.00">
        <route edges="6:4 4:0 0:1 1:2 2:3 3:5"/>
    </vehicle>
    <vehicle id="201" depart="140.70">
        <route edges="5:3 3:2 2:1 1:0"/>
    </vehicle>
    <vehicle id="202" depart="141.40">
        <route edges="0:1 1:12"/>
    </vehicle>
    <vehicle id="203" depart="142.10">
        <route edges="7:5 5:3 3:2 2:1 1:0 0:10"/>
    </vehicle>
    <vehicle id="205" depart="143.50">
        <route edges="19:18 18:3 3:5 5:7"/>
    </vehicle>
    <vehicle id="206" depart="144.20">
        <route edges="0:10 10:11"/>
    </vehicle>
    <vehicle id="210" depart="147.00">
        <route edges="8:0 0:1 1:2 2:3 3:16 16:17"/>
    </vehicle>
    <vehicle id="211" depart="147.70">
        <route edges="11:10 10:0 0:4 4:6"/>
    </vehicle>
    <vehicle id="213" depart="149.10">
        <route edges="6:4 4:0 0:1 1:12 12:13"/>
    </vehicle>
    <vehicle id="214" depart="149.80">
        <route edges="17:16 16:3 3:5"/>
    </vehicle>
    <vehicle id="215" depart="150.50">
        <route edges="13:12 12:1 1:0 0:8 8:9"/>
    </vehicle>
    <vehicle id="216" depart="151.20">
        <route edges="14:2 2:3 3:16 16:17"/>
    </vehicle>
    <vehicle id="217" depart="151.90">
        <route edges="17:16 16:3 3:2 2:1 1:0 0:8 8:9"/>
    </vehicle>
    <vehicle id="218" depart="152.60">
        <route edges="13:12 12:1 1:0 0:4"/>
    </vehicle>
    <vehicle id="221" depart="154.70">
        <route edges="1:2 2:3 3:16"/>
    </vehicle>
    <vehicle id="222" depart="155.40">
        <route edges="7:5 5:3 3:2 2:1 1:0 0:4"/>
    </vehicle>
    <vehicle id="223" depart="156.10">
        <route edges="6:4 4:0 0:1 1:2 2:14"/>
    </vehicle>
    <vehicle id="224" depart="156.80">
        <route edges="9:8 8:0 0:1 1:2"/>
    </vehicle>
    <vehicle id="225" depart="157.50">
        <route edges="6:4 4:0 0:1 1:2 2:3 3:5 5:7"/>
    </vehicle>
    <vehicle id="228" depart="159.60">
        <route edges="7:5 5:3 3:16 16:17"/>
    </vehicle>
    <vehicle id="230" depart="161.00">
        <route edges="7:5 5:3 3:2 2:1 1:0 0:8 8:9"/>
    </vehicle>
    <vehicle id="231" depart="161.70">
        <route edges="7:5 5:3 3:2 2:1 1:0 0:4 4:6"/>
    </vehicle>
    <vehicle id="233" depart="163.10">
        <route edges="11:10 10:0 0:1 1:2 2:3 3:5"/>
    </vehicle>
    <vehicle id="235" depart="164.50">
        <route edges="10:0 0:1 1:2 2:3 3:5 5:7"/>
    </vehicle>
    <vehicle id="236" depart="165.20">
        <route edges="7:5 5:3 3:2 2:1 1:0 0:8 8:9"/>
    </vehicle>
    <vehicle id="237" depart="165.90">
        <route edges="7:5 5:3 3:2 2:1 1:0 0:8 8:9"/>
    </vehicle>
    <vehicle id="238" depart="166.60">
        <route edges="13:12 12:1 1:2 2:3 3:5 5:7"/>
    </vehicle>
    <vehicle id="239" depart="167.30">
        <route edges="10:0 0:1 1:2 2:3 3:5 5:7"/>
    </vehicle>
    <vehicle id="240" depart="168.00">
        <route edges="0:1 1:2 2:14"/>
    </vehicle>
    <vehicle id="243" depart="170.10">
        <route edges="5:3 3:2 2:1 1:0 0:4 4:6"/>
    </vehicle>
    <vehicle id="247" depart="172.90">
        <route edges="13:12 12:1 1:2 2:3"/>
    </vehicle>
    <vehicle id="251" depart="175.70">
        <route edges="11:10 10:0 0:8 8:9"/>
    </vehicle>
    <vehicle id="253" depart="177.10">
        <route edges="10:0 0:8 8:9"/>
    </vehicle>
    <vehicle id="255" depart="178.50">
        <route edges="17:16 16:3 3:2 2:1 1:0 0:8"/>
    </vehicle>
    <vehicle id="257" depart="179.90">
        <route edges="17:16 16:3 3:2 2:1 1:0"/>
    </vehicle>
    <vehicle id="259" depart="181.30">
        <route edges="15:14 14:2 2:1 1:0 0:4 4:6"/>
    </vehicle>
    <vehicle id="260" depart="182.00">
        <route edges="11:10 10:0 0:1 1:2 2:3 3:5"/>
    </vehicle>
    <vehicle id="263" depart="184.10">
        <route edges="1:2 2:3 3:5 5:7"/>
    </vehicle>
    <vehicle id="265" depart="185.50">
        <route edges="7:5 5:3 3:2"/>
    </vehicle>
    <vehicle id="268" depart="187.60">
        <route edges="11:10 10:0 0:4 4:6"/>
    </vehicle>
    <vehicle id="269" depart="188.30">
        <route edges="19:18 18:3 3:2 2:1 1:0"/>
    </vehicle>
    <vehicle id="271" depart="189.70">
        <route edges="13:12 12:1 1:2 2:3 3:5 5:7"/>
    </vehicle>
    <vehicle id="272" depart="190.40">
        <route edges="3:2 2:1 1:0 0:4 4:6"/>
    </vehicle>
    <vehicle id="280" depart="196.00">
        <route edges="11:10 10:0 0:1 1:2 2:3 3:5"/>
    </vehicle>
    <vehicle id="282" depart="197.40">
        <route edges="15:14 14:2 2:3 3:5 5:7"/>
    </vehicle>
    <vehicle id="283" depart="198.10">
        <route edges="17:16 16:3 3:2 2:1 1:0 0:4 4:6"/>
    </vehicle>
    <vehicle id="291" depart="203.70">
        <route edges="15:14 14:2 2:3"/>
    </vehicle>
    <vehicle id="292" depart="204.40">
        <route edges="13:12 12:1 1:0 0:4 4:6"/>
    </vehicle>
    <vehicle id="293" depart="205.10">
        <route edges="17:16 16:3 3:2"/>
    </vehicle>
    <vehicle id="294" depart="205.80">
        <route edges="7:5 5:3 3:2 2:1 1:0 0:4"/>
    </vehicle>
    <vehicle id="295" depart="206.50">
        <route edges="4:0 0:1 1:12 12:13"/>
    </vehicle>
    <vehicle id="299" depart="209.30">
        <route edges="19:18 18:3 3:2 2:1 1:0 0:4 4:6"/>
    </vehicle>
    <vehicle id="305" depart="213.50">
        <route edges="7:5 5:3 3:2 2:1 1:12"/>
    </vehicle>
    <vehicle id="306" depart="214.20">
        <route edges="6:4 4:0 0:10 10:11"/>
    </vehicle>
    <vehicle id="307" depart="214.90">
        <route edges="15:14 14:2 2:1 1:12 12:13"/>
    </vehicle>
    <vehicle id="308" depart="215.60">
        <route edges="13:12 12:1 1:2 2:3 3:5"/>
    </vehicle>
    <vehicle id="312" depart="218.40">
        <route edges="11:10 10:0 0:1 1:2 2:3 3:16"/>
    </vehicle>
    <vehicle id="316" depart="221.20">
        <route edges="18:3 3:2 2:14 14:15"/>
    </vehicle>
    <vehicle id="318" depart="222.60">
        <route edges="17:16 16:3 3:2 2:14"/>
    </vehicle>
    <vehicle id="320" depart="224.00">
        <route edges="0:1 1:12 12:13"/>
    </vehicle>
    <vehicle id="324" depart="226.80">
        <route edges="19:18 18:3 3:5 5:7"/>
    </vehicle>
    <vehicle id="326" depart="228.20">
        <route edges="7:5 5:3 3:2 2:14 14:15"/>
    </vehicle>
    <vehicle id="327" depart="228.90">
        <route edges="3:2"/>
    </vehicle>
    <vehicle id="330" depart="231.00">
        <route edges="11:10 10:0 0:1 1:2 2:14 14:15"/>
    </vehicle>
    <vehicle id="332" depart="232.40">
        <route edges="9:8 8:0 0:1 1:2 2:3 3:16"/>
    </vehicle>
    <vehicle id="337" depart="235.90">
        <route edges="15:14 14:2 2:3 3:5 5:7"/>
    </vehicle>
    <vehicle id="338" depart="236.60">
        <route edges="7:5 5:3 3:2 2:1 1:0 0:10"/>
    </vehicle>
    <vehicle id="339" depart="237.30">
        <route edges="17:16 16:3"/>
    </vehicle>
    <vehicle id="343" depart="240.10">
        <route edges="16:3 3:5 5:7"/>
    </vehicle>
    <vehicle id="345" depart="241.50">
        <route edges="15:14 14:2 2:3"/>
    </vehicle>
    <vehicle id="347" depart="242.90">
        <route edges="19:18 18:3 3:16 16:17"/>
    </vehicle>
    <vehicle id="348" depart="243.60">
        <route edges="11:10 10:0 0:8 8:9"/>
    </vehicle>
    <vehicle id="350" depart="245.00">
        <route edges="5:3 3:2 2:1 1:0 0:4 4:6"/>
    </vehicle>
    <vehicle id="352" depart="246.40">
        <route edges="3:2 2:1 1:0 0:4 4:6"/>
    </vehicle>
    <vehicle id="353" depart="247.10">
        <route edges="7:5 5:3 3:18 18:19"/>
    </vehicle>
    <vehicle id="354" depart="247.80">
        <route edges="13:12 12:1 1:2 2:3 3:16 16:17"/>
    </vehicle>
    <vehicle id="357" depart="249.90">
        <route edges="7:5 5:3 3:2 2:1 1:0 0:8"/>
    </vehicle>
    <vehicle id="359" depart="251.30">
        <route edges="7:5 5:3 3:16 16:17"/>
    </vehicle>
    <vehicle id="360" depart="252.00">
        <route edges="2:14 14:15"/>
    </vehicle>
    <vehicle id="362" depart="253.40">
        <route edges="2:3 3:5"/>
    </vehicle>
    <vehicle id="363" depart="254.10">
        <route edges="4:0 0:1 1:2 2:3 3:16 16:17"/>
    </vehicle>
    <vehicle id="364" depart="254.80">
        <route edges="4:0 0:1"/>
    </vehicle>
    <vehicle id="365" depart="255.50">
        <route edges="11:10 10:0 0:1 1:2 2:3 3:18 18:19"/>
    </vehicle>
    <vehicle id="366" depart="256.20">
        <route edges="7:5 5:3 3:2"/>
    </vehicle>
    <vehicle id="367" depart="256.90">
        <route edges="5:3"/>
    </vehicle>
    <vehicle id="368" depart="257.60">
        <route edges="7:5 5:3 3:2 2:1 1:0 0:10 10:11"/>
    </vehicle>
    <vehicle id="369" depart="258.30">
        <route edges="5:3 3:2 2:1 1:0 0:8"/>
    </vehicle>
    <vehicle id="371" depart="259.70">
        <route edges="11:10 10:0 0:1 1:2 2:3 3:5 5:7"/>
    </vehicle>
    <vehicle id="373" depart="261.10">
        <route edges="6:4 4:0 0:1 1:2 2:3 3:5 5:7"/>
    </vehicle>
    <vehicle id="376" depart="263.20">
        <route edges="0:1 1:2 2:3 3:16 16:17"/>
    </vehicle>
    <vehicle id="378" depart="264.60">
        <route edges="10:0 0:4 4:6"/>
    </vehicle>
    <vehicle id="379" depart="265.30">
        <route edges="9:8 8:0 0:4 4:6"/>
    </vehicle>
    <vehicle id="380" depart="266.00">
        <route edges="7:5 5:3 3:2 2:1 1:0 0:10 10:11"/>
    </vehicle>
    <vehicle id="382" depart="267.40">
        <route edges="13:12 12:1 1:2 2:3"/>
    </vehicle>
    <vehicle id="384" depart="268.80">
        <route edges="13:12 12:1 1:0 0:4 4:6"/>
    </vehicle>
    <vehicle id="385" depart="269.50">
        <route edges="15:14 14:2 2:1 1:0 0:4 4:6"/>
    </vehicle>
    <vehicle id="387" depart="270.90">
        <route edges="19:18 18:3 3:2 2:1 1:0 0:10"/>
    </vehicle>
    <vehicle id="388" depart="271.60">
        <route edges="19:18 18:3 3:2 2:1 1:12 12:13"/>
    </vehicle>
    <vehicle id="390" depart="273.00">
        <route edges="7:5 5:3 3:2 2:14 14:15"/>
    </vehicle>
    <vehicle id="392" depart="274.40">
        <route edges="11:10 10:0 0:4 4:6"/>
    </vehicle>
    <vehicle id="396" depart="277.20">
        <route edges="17:16 16:3 3:2 2:1 1:0 0:8"/>
    </vehicle>
    <vehicle id="397" depart="277.90">
        <route edges="7:5 5:3 3:16 16:17"/>
    </vehicle>
    <vehicle id="399" depart="279.30">
        <route edges="1:2 2:3 3:18"/>
    </vehicle>
    <vehicle id="400" depart="280.00">
        <route edges="9:8 8:0 0:1 1:2"/>
    </vehicle>
    <vehicle id="403" depart="282.10">
        <route edges="15:14 14:2 2:3 3:5"/>
    </vehicle>
    <vehicle id="406" depart="284.20">
        <route edges="3:2 2:1 1:0 0:4 4:6"/>
    </vehicle>
    <vehicle id="407" depart="284.90">
        <route edges="16:3 3:18 18:19"/>
    </vehicle>
    <vehicle id="408" depart="285.60">
        <route edges="19:18 18:3 3:5 5:7"/>
    </vehicle>
    <vehicle id="409" depart="286.30">
        <route edges="3:2 2:1 1:12"/>
    </vehicle>
    <vehicle id="410" depart="287.00">
        <route edges="19:18 18:3 3:2 2:1 1:0 0:4 4:6"/>
    </vehicle>
    <vehicle id="411" depart="287.70">
        <route edges="7:5 5:3 3:2 2:14 14:15"/>
    </vehicle>
    <vehicle id="412" depart="288.40">
        <route edges="5:3 3:2 2:1 1:0"/>
    </vehicle>
    <vehicle id="413" depart="289.10">
        <route edges="2:3 3:5 5:7"/>
    </vehicle>
    <vehicle id="414" depart="289.80">
        <route edges="13:12 12:1 1:2 2:14"/>
    </vehicle>
    <vehicle id="415" depart="290.50">
        <route edges="13:12 12:1 1:2 2:14"/>
    </vehicle>
    <vehicle id="416" depart="291.20">
        <route edges="7:5 5:3 3:2 2:1 1:12"/>
    </vehicle>
    <vehicle id="417" depart="291.90">
        <route edges="17:16 16:3 3:5 5:7"/>
    </vehicle>
    <vehicle id="418" depart="292.60">
        <route edges="9:8 8:0 0:1 1:2 2:3 3:5 5:7"/>
    </vehicle>
    <vehicle id="419" depart="293.30">
        <route edges="1:12"/>
    </vehicle>
    <vehicle id="420" depart="294.00">
        <route edges="6:4 4:0 0:1 1:2 2:14 14:15"/>
    </vehicle>
    <vehicle id="427" depart="298.90">
        <route edges="13:12 12:1 1:2 2:3 3:16"/>
    </vehicle>
    <vehicle id="428" depart="299.60">
        <route edges="7:5 5:3 3:2 2:1 1:0 0:8 8:9"/>
    </vehicle>
    <vehicle id="433" depart="303.10">
        <route edges="3:2 2:1 1:0 0:10 10:11"/>
    </vehicle>
    <vehicle id="435" depart="304.50">
        <route edges="5:3"/>
    </vehicle>
    <vehicle id="436" depart="305.20">
        <route edges="16:3 3:2 2:1 1:0 0:4 4:6"/>
    </vehicle>
    <vehicle id="437" depart="305.90">
        <route edges="7:5 5:3 3:2 2:1 1:0 0:4 4:6"/>
    </vehicle>
    <vehicle id="438" depart="306.60">
        <route edges="13:12 12:1 1:2 2:3 3:5 5:7"/>
    </vehicle>
    <vehicle id="439" depart="307.30">
        <route edges="0:8"/>
    </vehicle>
    <vehicle id="440" depart="308.00">
        <route edges="15:14 14:2 2:3 3:5 5:7"/>
    </vehicle>
    <vehicle id="446" depart="312.20">
        <route edges="14:2 2:1 1:0 0:4"/>
    </vehicle>
    <vehicle id="448" depart="313.60">
        <route edges="2:3 3:5 5:7"/>
    </vehicle>
    <vehicle id="449" depart="314.30">
        <route edges="7:5 5:3 3:2 2:1 1:0 0:4 4:6"/>
    </vehicle>
    <vehicle id="450" depart="315.00">
        <route edges="7:5 5:3 3:2 2:1 1:0 0:4 4:6"/>
    </vehicle>
    <vehicle id="451" depart="315.70">
        <route edges="5:3 3:2 2:1 1:12 12:13"/>
    </vehicle>
    <vehicle id="452" depart="316.40">
        <route edges="12:1 1:0 0:4"/>
    </vehicle>
    <vehicle id="454" depart="317.80">
        <route edges="6:4 4:0"/>
    </vehicle>
    <vehicle id="455" depart="318.50">
        <route edges="14:2 2:3"/>
    </vehicle>
    <vehicle id="457" depart="319.90">
        <route edges="5:3 3:2 2:1 1:0 0:8 8:9"/>
    </vehicle>
    <vehicle id="458" depart="320.60">
        <route edges="0:1 1:2 2:3 3:5 5:7"/>
    </vehicle>
    <vehicle id="459" depart="321.30">
        <route edges="11:10 10:0 0:8 8:9"/>
    </vehicle>
    <vehicle id="460" depart="322.00">
        <route edges="0:4"/>
    </vehicle>
    <vehicle id="462" depart="323.40">
        <route edges="9:8 8:0 0:10 10:11"/>
    </vehicle>
    <vehicle id="464" depart="324.80">
        <route edges="15:14 14:2 2:3 3:18 18:19"/>
    </vehicle>
    <vehicle id="466" depart="326.20">
        <route edges="11:10 10:0 0:8"/>
    </vehicle>
    <vehicle id="468" depart="327.60">
        <route edges="7:5 5:3 3:16 16:17"/>
    </vehicle>
    <vehicle id="470" depart="329.00">
        <route edges="2:1 1:0"/>
    </vehicle>
    <vehicle id="471" depart="329.70">
        <route edges="1:2 2:3 3:16 16:17"/>
    </vehicle>
    <vehicle id="472" depart="330.40">
        <route edges="12:1 1:0 0:8 8:9"/>
    </vehicle>
    <vehicle id="473" depart="331.10">
        <route edges="17:16 16:3 3:2 2:1 1:0 0:8 8:9"/>
    </vehicle>
    <vehicle id="474" depart="331.80">
        <route edges="8:0"/>
    </vehicle>
    <vehicle id="476" depart="333.20">
        <route edges="16:3 3:2 2:1"/>
    </vehicle>
    <vehicle id="481" depart="336.70">
        <route edges="6:4 4:0 0:1 1:2"/>
    </vehicle>
    <vehicle id="484" depart="338.80">
        <route edges="4:0 0:1"/>
    </vehicle>
    <vehicle id="485" depart="339.50">
        <route edges="16:3 3:5"/>
    </vehicle>
    <vehicle id="488" depart="341.60">
        <route edges="13:12 12:1 1:2 2:14 14:15"/>
    </vehicle>
    <vehicle id="490" depart="343.00">
        <route edges="11:10 10:0 0:1 1:2 2:3 3:5"/>
    </vehicle>
    <vehicle id="491" depart="343.70">
        <route edges="2:1 1:0 0:4 4:6"/>
    </vehicle>
    <vehicle id="492" depart="344.40">
        <route edges="7:5 5:3 3:18 18:19"/>
    </vehicle>
    <vehicle id="493" depart="345.10">
        <route edges="19:18 18:3 3:16 16:17"/>
    </vehicle>
    <vehicle id="494" depart="345.80">
        <route edges="2:1"/>
    </vehicle>
    <vehicle id="495" depart="346.50">
        <route edges="16:3 3:2 2:14 14:15"/>
    </vehicle>
    <vehicle id="496" depart="347.20">
        <route edges="5:3 3:16 16:17"/>
    </vehicle>
    <vehicle id="497" depart="347.90">
        <route edges="4:0 0:1 1:2 2:3 3:18 18:19"/>
    </vehicle>
    <vehicle id="502" depart="351.40">
        <route edges="0:4"/>
    </vehicle>
    <vehicle id="503" depart="352.10">
        <route edges="6:4 4:0 0:1 1:12 12:13"/>
    </vehicle>
    <vehicle id="506" depart="354.20">
        <route edges="8:0 0:1 1:2 2:3 3:18 18:19"/>
    </vehicle>
    <vehicle id="507" depart="354.90">
        <route edges="9:8 8:0 0:1 1:12 12:13"/>
    </vehicle>
    <vehicle id="508" depart="355.60">
        <route edges="3:5 5:7"/>
    </vehicle>
    <vehicle id="510" depart="357.00">
        <route edges="15:14 14:2 2:1 1:12 12:13"/>
    </vehicle>
    <vehicle id="513" depart="359.10">
        <route edges="14:2 2:1 1:0 0:8 8:9"/>
    </vehicle>
    <vehicle id="514" depart="359.80">
        <route edges="6:4 4:0 0:10 10:11"/>
    </vehicle>
    <vehicle id="518" depart="362.60">
        <route edges="3:2 2:1 1:12 12:13"/>
    </vehicle>
    <vehicle id="519" depart="363.30">
        <route edges="19:18 18:3 3:2 2:1 1:0 0:8"/>
    </vehicle>
    <vehicle id="523" depart="366.10">
        <route edges="9:8 8:0 0:4"/>
    </vehicle>
    <vehicle id="524" depart="366.80">
        <route edges="1:0 0:10 10:11"/>
    </vehicle>
    <vehicle id="525" depart="367.50">
        <route edges="8:0 0:1 1:2 2:14"/>
    </vehicle>
    <vehicle id="529" depart="370.30">
        <route edges="4:0 0:1 1:2 2:3 3:5 5:7"/>
    </vehicle>
    <vehicle id="531" depart="371.70">
        <route edges="19:18 18:3 3:5 5:7"/>
    </vehicle>
    <vehicle id="532" depart="372.40">
        <route edges="15:14 14:2 2:1 1:0 0:4 4:6"/>
    </vehicle>
    <vehicle id="534" depart="373.80">
        <route edges="17:16 16:3 3:5 5:7"/>
    </vehicle>
    <vehicle id="536" depart="375.20">
        <route edges="18:3 3:2 2:1 1:0 0:4"/>
    </vehicle>