<?xml version="1.0" encoding="UTF-8"?>

<!-- generated on Thu Oct 23 22:34:44 2014 by SUMO duarouter Version 0.18.0
<?xml version="1.0" encoding="UTF-8"?>

<configuration xmlns:xsi="http://www.w3.org/2001/XMLSchema-instance" xsi:noNamespaceSchemaLocation="http://sumo.sf.net/xsd/duarouterConfiguration.xsd">

    <input>
        <net-file value="corridor.net.xml"/>
        <trip-files value="experimentos/corridor.p1.0.1.trips.xml"/>
    </input>

    <output>
        <output-file value="experimentos/corridor.p1.0.1.rou.xml"/>
    </output>

    <processing>
        <ignore-errors value="true"/>
    </processing>

    <random_number>
        <random value="true"/>
    </random_number>

</configuration>
-->

<routes xmlns:xsi="http://www.w3.org/2001/XMLSchema-instance" xsi:noNamespaceSchemaLocation="http://sumo.sf.net/xsd/routes_file.xsd">
    <vehicle id="2" depart="2.00">
        <route edges="2:1 1:0 0:4 4:6"/>
    </vehicle>
    <vehicle id="3" depart="3.00">
        <route edges="2:3 3:5 5:7"/>
    </vehicle>
    <vehicle id="4" depart="4.00">
        <route edges="1:2 2:14"/>
    </vehicle>
    <vehicle id="5" depart="5.00">
        <route edges="6:4 4:0 0:1 1:12"/>
    </vehicle>
    <vehicle id="7" depart="7.00">
        <route edges="1:2 2:3 3:5"/>
    </vehicle>
    <vehicle id="8" depart="8.00">
        <route edges="16:3 3:2 2:14 14:15"/>
    </vehicle>
    <vehicle id="9" depart="9.00">
        <route edges="19:18 18:3 3:2 2:1 1:0 0:8 8:9"/>
    </vehicle>
    <vehicle id="10" depart="10.00">
        <route edges="6:4 4:0 0:1 1:2 2:3 3:5 5:7"/>
    </vehicle>
    <vehicle id="11" depart="11.00">
        <route edges="3:2 2:1 1:0 0:8 8:9"/>
    </vehicle>
    <vehicle id="13" depart="13.00">
        <route edges="9:8 8:0 0:1 1:2 2:3 3:5 5:7"/>
    </vehicle>
    <vehicle id="14" depart="14.00">
        <route edges="4:0 0:1 1:2 2:3 3:18 18:19"/>
    </vehicle>
    <vehicle id="15" depart="15.00">
        <route edges="10:0 0:1 1:2 2:3 3:16 16:17"/>
    </vehicle>
    <vehicle id="17" depart="17.00">
        <route edges="12:1 1:0"/>
    </vehicle>
    <vehicle id="19" depart="19.00">
        <route edges="8:0 0:1 1:12"/>
    </vehicle>
    <vehicle id="24" depart="24.00">
        <route edges="9:8 8:0 0:1 1:2 2:14 14:15"/>
    </vehicle>
    <vehicle id="26" depart="26.00">
        <route edges="17:16 16:3 3:2 2:1 1:0 0:8"/>
    </vehicle>
    <vehicle id="29" depart="29.00">
        <route edges="11:10 10:0 0:1 1:2 2:3 3:16 16:17"/>
    </vehicle>
    <vehicle id="32" depart="32.00">
        <route edges="19:18 18:3 3:16 16:17"/>
    </vehicle>
    <vehicle id="33" depart="33.00">
        <route edges="6:4 4:0 0:8 8:9"/>
    </vehicle>
    <vehicle id="35" depart="35.00">
        <route edges="7:5 5:3 3:2 2:1 1:0"/>
    </vehicle>
    <vehicle id="37" depart="37.00">
        <route edges="6:4 4:0 0:1 1:12 12:13"/>
    </vehicle>
    <vehicle id="39" depart="39.00">
        <route edges="2:3 3:5 5:7"/>
    </vehicle>
    <vehicle id="40" depart="40.00">
        <route edges="17:16 16:3 3:2 2:1 1:12"/>
    </vehicle>
    <vehicle id="41" depart="41.00">
        <route edges="7:5 5:3 3:2 2:1"/>
    </vehicle>
    <vehicle id="42" depart="42.00">
        <route edges="9:8 8:0 0:1 1:2 2:3 3:18"/>
    </vehicle>
    <vehicle id="45" depart="45.00">
        <route edges="5:3 3:16"/>
    </vehicle>
    <vehicle id="46" depart="46.00">
        <route edges="7:5 5:3 3:16 16:17"/>
    </vehicle>
    <vehicle id="47" depart="47.00">
        <route edges="18:3 3:16 16:17"/>
    </vehicle>
    <vehicle id="51" depart="51.00">
        <route edges="4:0 0:1 1:12 12:13"/>
    </vehicle>
    <vehicle id="55" depart="55.00">
        <route edges="17:16 16:3 3:2"/>
    </vehicle>
    <vehicle id="57" depart="57.00">
        <route edges="13:12 12:1 1:0 0:10"/>
    </vehicle>
    <vehicle id="61" depart="61.00">
        <route edges="19:18 18:3 3:2 2:1 1:0 0:10 10:11"/>
    </vehicle>
    <vehicle id="62" depart="62.00">
        <route edges="15:14 14:2 2:3 3:5 5:7"/>
    </vehicle>
    <vehicle id="65" depart="65.00">
        <route edges="19:18 18:3 3:2 2:1 1:0 0:4 4:6"/>
    </vehicle>
    <vehicle id="66" depart="66.00">
        <route edges="6:4 4:0 0:1 1:2 2:3 3:16 16:17"/>
    </vehicle>
    <vehicle id="68" depart="68.00">
        <route edges="8:0 0:1 1:2 2:3"/>
    </vehicle>
    <vehicle id="69" depart="69.00">
        <route edges="9:8 8:0 0:1 1:2 2:3 3:16 16:17"/>
    </vehicle>
    <vehicle id="72" depart="72.00">
        <route edges="8:0 0:1 1:2 2:3 3:18 18:19"/>
    </vehicle>
    <vehicle id="73" depart="73.00">
        <route edges="19:18 18:3 3:2 2:1 1:0 0:4 4:6"/>
    </vehicle>
    <vehicle id="74" depart="74.00">
        <route edges="9:8 8:0 0:1 1:2"/>
    </vehicle>
    <vehicle id="75" depart="75.00">
        <route edges="14:2 2:3 3:16"/>
    </vehicle>
    <vehicle id="78" depart="78.00">
        <route edges="6:4 4:0 0:8 8:9"/>
    </vehicle>
    <vehicle id="85" depart="85.00">
        <route edges="6:4 4:0 0:1 1:12"/>
    </vehicle>
    <vehicle id="88" depart="88.00">
        <route edges="13:12 12:1 1:2 2:3 3:18 18:19"/>
    </vehicle>
    <vehicle id="91" depart="91.00">
        <route edges="17:16 16:3 3:2 2:1 1:12 12:13"/>
    </vehicle>
    <vehicle id="94" depart="94.00">
        <route edges="11:10 10:0 0:1 1:2 2:3 3:5"/>
    </vehicle>
    <vehicle id="96" depart="96.00">
        <route edges="2:3 3:5"/>
    </vehicle>
    <vehicle id="97" depart="97.00">
        <route edges="3:2 2:14 14:15"/>
    </vehicle>
    <vehicle id="98" depart="98.00">
        <route edges="9:8 8:0 0:4 4:6"/>
    </vehicle>
    <vehicle id="100" depart="100.00">
        <route edges="19:18 18:3"/>
    </vehicle>
    <vehicle id="103" depart="103.00">
        <route edges="2:1"/>
    </vehicle>
    <vehicle id="105" depart="105.00">
        <route edges="0:1 1:2 2:3 3:5 5:7"/>
    </vehicle>
    <vehicle id="106" depart="106.00">
        <route edges="6:4 4:0 0:1 1:2 2:3 3:16 16:17"/>
    </vehicle>
    <vehicle id="107" depart="107.00">
        <route edges="11:10 10:0 0:1 1:12"/>
    </vehicle>
    <vehicle id="108" depart="108.00">
        <route edges="6:4 4:0 0:10 10:11"/>
    </vehicle>
    <vehicle id="110" depart="110.00">
        <route edges="7:5 5:3 3:2 2:1 1:0 0:8"/>
    </vehicle>
    <vehicle id="111" depart="111.00">
        <route edges="17:16 16:3 3:5 5:7"/>
    </vehicle>
    <vehicle id="113" depart="113.00">
        <route edges="13:12 12:1 1:2 2:3 3:18"/>
    </vehicle>
    <vehicle id="115" depart="115.00">
        <route edges="9:8 8:0 0:1 1:2 2:3 3:5 5:7"/>
    </vehicle>
    <vehicle id="117" depart="117.00">
        <route edges="11:10 10:0 0:1 1:2 2:3"/>
    </vehicle>
    <vehicle id="118" depart="118.00">
        <route edges="1:2 2:3 3:5 5:7"/>
    </vehicle>
    <vehicle id="119" depart="119.00">
        <route edges="2:3 3:5 5:7"/>
    </vehicle>
    <vehicle id="124" depart="124.00">
        <route edges="17:16 16:3 3:2 2:14 14:15"/>
    </vehicle>
    <vehicle id="127" depart="127.00">
        <route edges="3:2 2:1 1:0 0:4 4:6"/>
    </vehicle>
    <vehicle id="128" depart="128.00">
        <route edges="11:10 10:0 0:1 1:2 2:3 3:16"/>
    </vehicle>
    <vehicle id="129" depart="129.00">
        <route edges="9:8 8:0 0:1 1:2"/>
    </vehicle>
    <vehicle id="131" depart="131.00">
        <route edges="6:4 4:0 0:1 1:2 2:3 3:5 5:7"/>
    </vehicle>
    <vehicle id="132" depart="132.00">
        <route edges="6:4 4:0 0:1 1:12 12:13"/>
    </vehicle>
    <vehicle id="133" depart="133.00">
        <route edges="10:0 0:1 1:2 2:14 14:15"/>
    </vehicle>
    <vehicle id="135" depart="135.00">
        <route edges="19:18 18:3 3:2 2:1 1:12 12:13"/>
    </vehicle>
    <vehicle id="137" depart="137.00">
        <route edges="15:14 14:2 2:3 3:5 5:7"/>
    </vehicle>
    <vehicle id="138" depart="138.00">
        <route edges="8:0 0:1 1:2 2:3 3:5"/>
    </vehicle>
    <vehicle id="139" depart="139.00">
        <route edges="12:1 1:2 2:3 3:18 18:19"/>
    </vehicle>
    <vehicle id="142" depart="142.00">
        <route edges="14:2 2:3 3:18"/>
    </vehicle>
    <vehicle id="146" depart="146.00">
        <route edges="6:4 4:0 0:10 10:11"/>
    </vehicle>
    <vehicle id="149" depart="149.00">
        <route edges="3:2"/>
    </vehicle>
    <vehicle id="150" depart="150.00">
        <route edges="16:3 3:2 2:1 1:0 0:4 4:6"/>
    </vehicle>
    <vehicle id="151" depart="151.00">
        <route edges="9:8 8:0 0:10 10:11"/>
    </vehicle>
    <vehicle id="153" depart="153.00">
        <route edges="17:16 16:3 3:2 2:1 1:12 12:13"/>
    </vehicle>
    <vehicle id="154" depart="154.00">
        <route edges="13:12 12:1 1:2 2:3 3:5 5:7"/>
    </vehicle>
    <vehicle id="155" depart="155.00">
        <route edges="17:16 16:3 3:18 18:19"/>
    </vehicle>
    <vehicle id="157" depart="157.00">
        <route edges="7:5 5:3 3:2 2:1 1:12"/>
    </vehicle>
    <vehicle id="161" depart="161.00">
        <route edges="15:14 14:2 2:3 3:5 5:7"/>
    </vehicle>
    <vehicle id="163" depart="163.00">
        <route edges="7:5 5:3 3:18 18:19"/>
    </vehicle>
    <vehicle id="164" depart="164.00">
        <route edges="3:2 2:14 14:15"/>
    </vehicle>
    <vehicle id="165" depart="165.00">
        <route edges="17:16 16:3 3:18"/>
    </vehicle>
    <vehicle id="166" depart="166.00">
        <route edges="7:5 5:3 3:2 2:1 1:0 0:4 4:6"/>
    </vehicle>
    <vehicle id="167" depart="167.00">
        <route edges="7:5 5:3 3:2 2:1 1:0 0:4 4:6"/>
    </vehicle>
    <vehicle id="168" depart="168.00">
        <route edges="18:3 3:2"/>
    </vehicle>
    <vehicle id="169" depart="169.00">
        <route edges="7:5 5:3 3:2 2:14 14:15"/>
    </vehicle>
    <vehicle id="172" depart="172.00">
        <route edges="6:4 4:0 0:1 1:2 2:3"/>
    </vehicle>
    <vehicle id="173" depart="173.00">
        <route edges="19:18 18:3 3:16"/>
    </vehicle>
    <vehicle id="175" depart="175.00">
        <route edges="4:0 0:1"/>
    </vehicle>
    <vehicle id="176" depart="176.00">
        <route edges="17:16 16:3 3:5 5:7"/>
    </vehicle>
    <vehicle id="177" depart="177.00">
        <route edges="4:0 0:1 1:2 2:3 3:16 16:17"/>
    </vehicle>
    <vehicle id="178" depart="178.00">
        <route edges="7:5 5:3 3:2 2:1 1:0 0:8 8:9"/>
    </vehicle>
    <vehicle id="179" depart="179.00">
        <route edges="14:2 2:1 1:12"/>
    </vehicle>
    <vehicle id="180" depart="180.00">
        <route edges="13:12 12:1 1:0 0:10"/>
    </vehicle>
    <vehicle id="182" depart="182.00">
        <route edges="6:4 4:0 0:1 1:2 2:3 3:18"/>
    </vehicle>
    <vehicle id="183" depart="183.00">
        <route edges="9:8 8:0 0:1 1:12 12:13"/>
    </vehicle>
    <vehicle id="184" depart="184.00">
        <route edges="19:18 18:3 3:2"/>
    </vehicle>
    <vehicle id="185" depart="185.00">
        <route edges="7:5 5:3 3:2 2:1 1:0 0:4 4:6"/>
    </vehicle>
    <vehicle id="186" depart="186.00">
        <route edges="17:16 16:3 3:2 2:1 1:0 0:4"/>
    </vehicle>
    <vehicle id="188" depart="188.00">
        <route edges="8:0"/>
    </vehicle>
    <vehicle id="191" depart="191.00">
        <route edges="14:2 2:1"/>
    </vehicle>
    <vehicle id="192" depart="192.00">
        <route edges="18:3 3:2 2:1 1:12 12:13"/>
    </vehicle>
    <vehicle id="193" depart="193.00">
        <route edges="9:8 8:0 0:1 1:2 2:14"/>
    </vehicle>
    <vehicle id="195" depart="195.00">
        <route edges="15:14 14:2 2:3"/>
    </vehicle>
    <vehicle id="196" depart="196.00">
        <route edges="8:0 0:1 1:2"/>
    </vehicle>
    <vehicle id="197" depart="197.00">
        <route edges="7:5 5:3 3:2 2:1 1:0"/>
    </vehicle>
    <vehicle id="198" depart="198.00">
        <route edges="7:5 5:3 3:16 16:17"/>
    </vehicle>
    <vehicle id="199" depart="199.00">
        <route edges="6:4 4:0 0:1 1:2 2:3 3:5 5:7"/>
    </vehicle>
    <vehicle id="200" depart="200.00">
        <route edges="7:5 5:3 3:2 2:14"/>
    </vehicle>
    <vehicle id="203" depart="203.00">
        <route edges="6:4 4:0 0:1 1:2 2:3 3:5 5:7"/>
    </vehicle>
    <vehicle id="206" depart="206.00">
        <route edges="2:3 3:5 5:7"/>
    </vehicle>
    <vehicle id="207" depart="207.00">
        <route edges="11:10 10:0 0:1 1:2 2:14 14:15"/>
    </vehicle>
    <vehicle id="212" depart="212.00">
        <route edges="1:2 2:3"/>
    </vehicle>
    <vehicle id="214" depart="214.00">
        <route edges="8:0 0:1 1:12 12:13"/>
    </vehicle>
    <vehicle id="215" depart="215.00">
        <route edges="3:5 5:7"/>
    </vehicle>
    <vehicle id="216" depart="216.00">
        <route edges="3:2 2:14 14:15"/>
    </vehicle>
    <vehicle id="219" depart="219.00">
        <route edges="6:4 4:0 0:1 1:2 2:3 3:5"/>
    </vehicle>
    <vehicle id="221" depart="221.00">
        <route edges="15:14 14:2 2:1 1:0 0:10"/>
    </vehicle>
    <vehicle id="226" depart="226.00">
        <route edges="3:2 2:1 1:0 0:10 10:11"/>
    </vehicle>
    <vehicle id="227" depart="227.00">
        <route edges="2:1 1:0 0:8 8:9"/>
    </vehicle>
    <vehicle id="228" depart="228.00">
        <route edges="15:14 14:2 2:3 3:16 16:17"/>
    </vehicle>
    <vehicle id="229" depart="229.00">
        <route edges="3:16 16:17"/>
    </vehicle>
    <vehicle id="231" depart="231.00">
        <route edges="19:18 18:3 3:2 2:1 1:12 12:13"/>
    </vehicle>
    <vehicle id="232" depart="232.00">
        <route edges="15:14 14:2 2:1 1:0 0:8 8:9"/>
    </vehicle>
    <vehicle id="234" depart="234.00">
        <route edges="7:5 5:3 3:2 2:1 1:0 0:10 10:11"/>
    </vehicle>
    <vehicle id="235" depart="235.00">
        <route edges="10:0 0:8 8:9"/>
    </vehicle>
    <vehicle id="237" depart="237.00">
        <route edges="15:14 14:2 2:3 3:5"/>
    </vehicle>
    <vehicle id="239" depart="239.00">
        <route edges="4:0 0:10 10:11"/>
    </vehicle>
    <vehicle id="240" depart="240.00">
        <route edges="11:10 10:0 0:1 1:2 2:14 14:15"/>
    </vehicle>
    <vehicle id="244" depart="244.00">
        <route edges="6:4 4:0 0:1 1:2 2:14 14:15"/>
    </vehicle>
    <vehicle id="245" depart="245.00">
        <route edges="17:16 16:3 3:5 5:7"/>
    </vehicle>
    <vehicle id="246" depart="246.00">
        <route edges="6:4 4:0 0:1 1:2 2:3 3:16 16:17"/>
    </vehicle>
    <vehicle id="247" depart="247.00">
        <route edges="19:18 18:3 3:2 2:1 1:0 0:8 8:9"/>
    </vehicle>
    <vehicle id="248" depart="248.00">
        <route edges="19:18 18:3 3:2 2:1 1:0 0:10 10:11"/>
    </vehicle>
    <vehicle id="251" depart="251.00">
        <route edges="11:10 10:0 0:1"/>
    </vehicle>
    <vehicle id="254" depart="254.00">
        <route edges="7:5 5:3 3:2 2:1 1:0 0:8 8:9"/>
    </vehicle>
    <vehicle id="258" depart="258.00">
        <route edges="5:3 3:2 2:14 14:15"/>
    </vehicle>
    <vehicle id="260" depart="260.00">
        <route edges="1:0 0:8 8:9"/>
    </vehicle>
    <vehicle id="263" depart="263.00">
        <route edges="7:5 5:3 3:2 2:1 1:0 0:10"/>
    </vehicle>
    <vehicle id="264" depart="264.00">
        <route edges="11:10 10:0 0:4 4:6"/>
    </vehicle>
    <vehicle id="265" depart="265.00">
        <route edges="5:3 3:2"/>
    </vehicle>
    <vehicle id="266" depart="266.00">
        <route edges="8:0 0:4"/>
    </vehicle>
    <vehicle id="267" depart="267.00">
        <route edges="5:3 3:18 18:19"/>
    </vehicle>
    <vehicle id="268" depart="268.00">
        <route edges="4:0 0:1 1:2 2:3 3:5 5:7"/>
    </vehicle>
    <vehicle id="270" depart="270.00">
        <route edges="5:3 3:18 18:19"/>
    </vehicle>
    <vehicle id="271" depart="271.00">
        <route edges="6:4 4:0 0:1 1:12 12:13"/>
    </vehicle>
    <vehicle id="272" depart="272.00">
        <route edges="4:0 0:1 1:2 2:3 3:5"/>
    </vehicle>
    <vehicle id="273" depart="273.00">
        <route edges="7:5 5:3 3:2 2:1"/>
    </vehicle>
    <vehicle id="276" depart="276.00">
        <route edges="7:5 5:3 3:2 2:1 1:0 0:8"/>
    </vehicle>
    <vehicle id="280" depart="280.00">
        <route edges="6:4 4:0 0:1 1:2 2:14 14:15"/>
    </vehicle>
    <vehicle id="285" depart="285.00">
        <route edges="9:8 8:0 0:1 1:2 2:3"/>
    </vehicle>
    <vehicle id="286" depart="286.00">
        <route edges="9:8 8:0 0:1 1:2 2:3"/>
    </vehicle>
    <vehicle id="292" depart="292.00">
        <route edges="9:8 8:0 0:4 4:6"/>
    </vehicle>
    <vehicle id="294" depart="294.00">
        <route edges="9:8 8:0 0:4"/>
    </vehicle>
    <vehicle id="295" depart="295.00">
        <route edges="15:14 14:2 2:3 3:5 5:7"/>
    </vehicle>
    <vehicle id="296" depart="296.00">
        <route edges="19:18 18:3 3:16 16:17"/>
    </vehicle>
    <vehicle id="299" depart="299.00">
        <route edges="19:18 18:3 3:2 2:1 1:0 0:8 8:9"/>
    </vehicle>
    <vehicle id="306" depart="306.00">
        <route edges="17:16 16:3 3:2 2:1 1:0 0:4 4:6"/>
    </vehicle>
    <vehicle id="307" depart="307.00">
        <route edges="14:2 2:1 1:0"/>
    </vehicle>
    <vehicle id="309" depart="309.00">
        <route edges="7:5 5:3 3:2 2:1 1:0 0:4"/>
    </vehicle>
    <vehicle id="310" depart="310.00">
        <route edges="9:8 8:0 0:4 4:6"/>
    </vehicle>
    <vehicle id="311" depart="311.00">
        <route edges="19:18 18:3 3:2 2:1 1:0 0:10"/>
    </vehicle>
    <vehicle id="312" depart="312.00">
        <route edges="19:18 18:3 3:2 2:1 1:0"/>
    </vehicle>
    <vehicle id="315" depart="315.00">
        <route edges="15:14 14:2 2:1 1:0 0:4"/>
    </vehicle>
    <vehicle id="316" depart="316.00">
        <route edges="5:3 3:2 2:1 1:12"/>
    </vehicle>
    <vehicle id="317" depart="317.00">
        <route edges="11:10 10:0 0:1 1:12"/>
    </vehicle>
    <vehicle id="318" depart="318.00">
        <route edges="7:5 5:3 3:16 16:17"/>
    </vehicle>
    <vehicle id="320" depart="320.00">
        <route edges="7:5 5:3 3:18 18:19"/>
    </vehicle>
    <vehicle id="321" depart="321.00">
        <route edges="10:0 0:1"/>
    </vehicle>
    <vehicle id="322" depart="322.00">
        <route edges="6:4 4:0 0:1 1:2 2:14 14:15"/>
    </vehicle>
    <vehicle id="323" depart="323.00">
        <route edges="17:16 16:3 3:2 2:1 1:0 0:4 4:6"/>
    </vehicle>
    <vehicle id="324" depart="324.00">
        <route edges="15:14 14:2 2:1 1:0 0:4 4:6"/>
    </vehicle>
    <vehicle id="325" depart="325.00">
        <route edges="18:3 3:5 5:7"/>
    </vehicle>
    <vehicle id="330" depart="330.00">
        <route edges="4:0 0:1 1:12 12:13"/>
    </vehicle>
    <vehicle id="331" depart="331.00">
        <route edges="6:4 4:0 0:1 1:2 2:3 3:5 5:7"/>
    </vehicle>
    <vehicle id="332" depart="332.00">
        <route edges="12:1 1:2 2:14 14:15"/>
    </vehicle>
    <vehicle id="334" depart="334.00">
        <route edges="0:1 1:2 2:3 3:18"/>
    </vehicle>
    <vehicle id="335" depart="335.00">
        <route edges="3:5"/>
    </vehicle>
    <vehicle id="336" depart="336.00">
        <route edges="1:0 0:10 10:11"/>
    </vehicle>
    <vehicle id="337" depart="337.00">
        <route edges="14:2 2:3"/>
    </vehicle>
    <vehicle id="338" depart="338.00">
        <route edges="3:18 18:19"/>
    </vehicle>
    <vehicle id="340" depart="340.00">
        <route edges="9:8 8:0 0:1 1:12 12:13"/>
    </vehicle>
    <vehicle id="341" depart="341.00">
        <route edges="18:3 3:2 2:1 1:0 0:10"/>
    </vehicle>
    <vehicle id="342" depart="342.00">
        <route edges="6:4 4:0 0:1 1:2 2:3 3:5 5:7"/>
    </vehicle>
    <vehicle id="343" depart="343.00">
        <route edges="6:4 4:0"/>
    </vehicle>
    <vehicle id="344" depart="344.00">
        <route edges="5:3 3:2 2:1 1:0 0:4 4:6"/>
    </vehicle>
    <vehicle id="345" depart="345.00">
        <route edges="6:4 4:0 0:1 1:2"/>
    </vehicle>
    <vehicle id="347" depart="347.00">
        <route edges="5:3 3:2 2:1"/>
    </vehicle>
    <vehicle id="349" depart="349.00">
        <route edges="0:4 4:6"/>
    </vehicle>
    <vehicle id="351" depart="351.00">
        <route edges="15:14 14:2 2:3 3:5 5:7"/>
    </vehicle>
    <vehicle id="352" depart="352.00">
        <route edges="4:0 0:1 1:2"/>
    </vehicle>
    <vehicle id="353" depart="353.00">
        <route edges="19:18 18:3 3:2 2:1 1:0 0:8 8:9"/>
    </vehicle>
    <vehicle id="356" depart="356.00">
        <route edges="4:0 0:1 1:2 2:3 3:16 16:17"/>
    </vehicle>
    <vehicle id="359" depart="359.00">
        <route edges="7:5 5:3 3:2 2:14 14:15"/>
    </vehicle>
    <vehicle id="360" depart="360.00">
        <route edges="5:3 3:2 2:1 1:0 0:4"/>
    </vehicle>
    <vehicle id="361" depart="361.00">
        <route edges="6:4 4:0 0:10"/>
    </vehicle>
    <vehicle id="364" depart="364.00">
        <route edges="11:10 10:0 0:8"/>
    </vehicle>
    <vehicle id="365" depart="365.00">
        <route edges="17:16 16:3 3:2 2:1 1:0 0:4 4:6"/>
    </vehicle>
    <vehicle id="367" depart="367.00">
        <route edges="16:3 3:2 2:1 1:0 0:10 10:11"/>
    </vehicle>
    <vehicle id="368" depart="368.00">
        <route edges="9:8 8:0 0:4"/>
    </vehicle>
    <vehicle id="371" depart="371.00">
        <route edges="9:8 8:0 0:1 1:2 2:3 3:5 5:7"/>
    </vehicle>
    <vehicle id="373" depart="373.00">
        <route edges="7:5 5:3 3:18 18:19"/>
    </vehicle>
    <vehicle id="374" depart="374.00">
        <route edges="9:8 8:0 0:1 1:2"/>
    </vehicle>
    <vehicle id="375" depart="375.00">
        <route edges="18:3 3:5"/>
    </vehicle>
    <vehicle id="380" depart="380.00">
        <route edges="11:10 10:0 0:4 4:6"/>
    </vehicle>
    <vehicle id="381" depart="381.00">
        <route edges="6:4 4:0 0:1 1:2 2:3 3:18 18:19"/>
    </vehicle>
    <vehicle id="383" depart="383.00">
        <route edges="12:1 1:2 2:3 3:5 5:7"/>
    </vehicle>
    <vehicle id="384" depart="384.00">
        <route edges="6:4 4:0 0:8 8:9"/>
    </vehicle>
    <vehicle id="387" depart="387.00">
        <route edges="6:4 4:0 0:1 1:2 2:3 3:18 18:19"/>
    </vehicle>
    <vehicle id="390" depart="390.00">
        <route edges="9:8 8:0 0:1 1:2 2:3 3:5 5:7"/>
    </vehicle>
    <vehicle id="391" depart="391.00">
        <route edges="6:4 4:0 0:1 1:2 2:3 3:18 18:19"/>
    </vehicle>
    <vehicle id="392" depart="392.00">
        <route edges="19:18 18:3 3:5"/>
    </vehicle>
    <vehicle id="396" depart="396.00">
        <route edges="7:5 5:3 3:18 18:19"/>
    </vehicle>
    <vehicle id="397" depart="397.00">
        <route edges="15:14 14:2 2:1 1:0 0:4 4:6"/>
    </vehicle>
    <vehicle id="400" depart="400.00">
        <route edges="17:16 16:3 3:2 2:1 1:0 0:8 8:9"/>
    </vehicle>
    <vehicle id="401" depart="401.00">
        <route edges="9:8 8:0 0:1 1:12"/>
    </vehicle>
    <vehicle id="406" depart="406.00">
        <route edges="18:3 3:16"/>
    </vehicle>
    <vehicle id="408" depart="408.00">
        <route edges="4:0 0:1 1:12"/>
    </vehicle>
    <vehicle id="413" depart="413.00">
        <route edges="5:3 3:18 18:19"/>
    </vehicle>
    <vehicle id="414" depart="414.00">
        <route edges="18:3 3:2 2:1"/>
    </vehicle>
    <vehicle id="417" depart="417.00">
        <route edges="13:12 12:1 1:2 2:14 14:15"/>
    </vehicle>
    <vehicle id="418" depart="418.00">
        <route edges="10:0 0:4 4:6"/>
    </vehicle>
    <vehicle id="419" depart="419.00">
        <route edges="5:3 3:2 2:1 1:0 0:10 10:11"/>
    </vehicle>
    <vehicle id="420" depart="420.00">
        <route edges="6:4 4:0 0:1 1:2 2:3 3:5 5:7"/>
    </vehicle>
    <vehicle id="421" depart="421.00">
        <route edges="19:18 18:3 3:2 2:1 1:12 12:13"/>
    </vehicle>
    <vehicle id="424" depart="424.00">
        <route edges="13:12 12:1 1:0 0:4"/>
    </vehicle>
    <vehicle id="425" depart="425.00">
        <route edges="16:3 3:5 5:7"/>
    </vehicle>
    <vehicle id="426" depart="426.00">
        <route edges="15:14 14:2 2:1"/>
    </vehicle>
    <vehicle id="429" depart="429.00">
        <route edges="18:3 3:2 2:1 1:0 0:8 8:9"/>
    </vehicle>
    <vehicle id="430" depart="430.00">
        <route edges="18:3 3:2 2:1 1:12 12:13"/>
    </vehicle>
    <vehicle id="431" depart="431.00">
        <route edges="15:14 14:2 2:3 3:16 16:17"/>
    </vehicle>
    <vehicle id="432" depart="432.00">
        <route edges="0:4"/>
    </vehicle>
    <vehicle id="433" depart="433.00">
        <route edges="13:12 12:1 1:2 2:14 14:15"/>
    </vehicle>
    <vehicle id="438" depart="438.00">
        <route edges="8:0 0:1 1:2 2:3 3:18 18:19"/>
    </vehicle>
    <vehicle id="439" depart="439.00">
        <route edges="10:0 0:4 4:6"/>
    </vehicle>
    <vehicle id="440" depart="440.00">
        <route edges="2:1 1:0 0:4 4:6"/>
    </vehicle>
    <vehicle id="444" depart="444.00">
        <route edges="6:4 4:0 0:1 1:2 2:3 3:16 16:17"/>
    </vehicle>
    <vehicle id="445" depart="445.00">
        <route edges="7:5 5:3 3:18 18:19"/>
    </vehicle>
    <vehicle id="446" depart="446.00">
        <route edges="11:10 10:0 0:1 1:2 2:3 3:5 5:7"/>
    </vehicle>
    <vehicle id="447" depart="447.00">
        <route edges="9:8 8:0 0:1 1:12"/>
    </vehicle>
    <vehicle id="448" depart="448.00">
        <route edges="10:0 0:1 1:12 12:13"/>
    </vehicle>
    <vehicle id="449" depart="449.00">
        <route edges="3:2 2:1 1:0 0:4"/>
    </vehicle>
    <vehicle id="451" depart="451.00">
        <route edges="19:18 18:3 3:5 5:7"/>
    </vehicle>
    <vehicle id="452" depart="452.00">
        <route edges="5:3 3:2 2:1 1:0 0:4 4:6"/>
    </vehicle>
    <vehicle id="453" depart="453.00">
        <route edges="6:4 4:0 0:1"/>
    </vehicle>
    <vehicle id="454" depart="454.00">
        <route edges="19:18 18:3 3:16 16:17"/>
    </vehicle>
    <vehicle id="455" depart="455.00">
        <route edges="15:14 14:2 2:3 3:5"/>
    </vehicle>
    <vehicle id="456" depart="456.00">
        <route edges="11:10 10:0 0:1 1:2 2:3 3:5 5:7"/>
    </vehicle>
    <vehicle id="458" depart="458.00">
        <route edges="6:4 4:0 0:1 1:2 2:3 3:5 5:7"/>
    </vehicle>
    <vehicle id="459" depart="459.00">
        <route edges="14:2 2:3 3:5 5:7"/>
    </vehicle>
    <vehicle id="460" depart="460.00">
        <route edges="9:8 8:0 0:1 1:2 2:3 3:5"/>
    </vehicle>
    <vehicle id="461" depart="461.00">
        <route edges="1:12 12:13"/>
    </vehicle>
    <vehicle id="462" depart="462.00">
        <route edges="14:2 2:1 1:0 0:4 4:6"/>
    </vehicle>
    <vehicle id="463" depart="463.00">
        <route edges="5:3 3:2 2:14 14:15"/>
    </vehicle>
    <vehicle id="466" depart="466.00">
        <route edges="13:12 12:1 1:2 2:3 3:5 5:7"/>
    </vehicle>
    <vehicle id="467" depart="467.00">
        <route edges="13:12 12:1 1:2 2:3 3:5 5:7"/>
    </vehicle>
    <vehicle id="470" depart="470.00">
        <route edges="6:4 4:0 0:1 1:2 2:3 3:5"/>
    </vehicle>
    <vehicle id="472" depart="472.00">
        <route edges="13:12 12:1 1:2 2:3 3:5 5:7"/>
    </vehicle>
    <vehicle id="476" depart="476.00">
        <route edges="1:0 0:4 4:6"/>
    </vehicle>
    <vehicle id="477" depart="477.00">
        <route edges="5:3 3:2 2:1 1:0 0:4 4:6"/>
    </vehicle>
    <vehicle id="480" depart="480.00">
        <route edges="3:2 2:1 1:0"/>
    </vehicle>
    <vehicle id="481" depart="481.00">
        <route edges="6:4 4:0 0:1 1:2 2:3 3:5 5:7"/>
    </vehicle>
    <vehicle id="482" depart="482.00">
        <route edges="6:4 4:0 0:1 1:12"/>
    </vehicle>
    <vehicle id="485" depart="485.00">
        <route edges="1:0 0:8 8:9"/>
    </vehicle>
    <vehicle id="486" depart="486.00">
        <route edges="17:16 16:3 3:5 5:7"/>
    </vehicle>
    <vehicle id="487" depart="487.00">
        <route edges="7:5 5:3 3:2 2:1 1:0 0:8 8:9"/>
    </vehicle>
    <vehicle id="489" depart="489.00">
        <route edges="15:14 14:2 2:3 3:5 5:7"/>
    </vehicle>
    <vehicle id="491" depart="491.00">
        <route edges="7:5 5:3 3:2 2:14"/>
    </vehicle>
    <vehicle id="493" depart="493.00">
        <route edges="1:2 2:14 14:15"/>
    </vehicle>
    <vehicle id="495" depart="495.00">
        <route edges="0:8 8:9"/>
    </vehicle>
    <vehicle id="496" depart="496.00">
        <route edges="4:0 0:1 1:12 12:13"/>
    </vehicle>
    <vehicle id="498" depart="498.00">
        <route edges="2:3 3:16"/>
    </vehicle>
    <vehicle id="499" depart="499.00">
        <route edges="13:12 12:1 1:0 0:4"/>
    </vehicle>
    <vehicle id="500" depart="500.00">
        <route edges="11:10 10:0 0:1 1:2 2:3 3:5 5:7"/>
    </vehicle>
    <vehicle id="501" depart="501.00">
        <route edges="2:1 1:0 0:8 8:9"/>
    </vehicle>
    <vehicle id="502" depart="502.00">
        <route edges="19:18 18:3 3:2 2:1 1:0 0:4 4:6"/>
    </vehicle>
    <vehicle id="503" depart="503.00">
        <route edges="7:5 5:3 3:16 16:17"/>
    </vehicle>
    <vehicle id="507" depart="507.00">
        <route edges="14:2 2:1 1:0 0:4 4:6"/>
    </vehicle>
    <vehicle id="508" depart="508.00">
        <route edges="8:0 0:1 1:12 12:13"/>
    </vehicle>
    <vehicle id="509" depart="509.00">
        <route edges="9:8 8:0 0:10"/>
    </vehicle>
    <vehicle id="511" depart="511.00">
        <route edges="15:14 14:2 2:1 1:0 0:10 10:11"/>
    </vehicle>
    <vehicle id="512" depart="512.00">
        <route edges="0:8 8:9"/>
    </vehicle>
    <vehicle id="513" depart="513.00">
        <route edges="7:5 5:3 3:2 2:1 1:12 12:13"/>
    </vehicle>
    <vehicle id="514" depart="514.00">
        <route edges="3:18"/>
    </vehicle>
    <vehicle id="516" depart="516.00">
        <route edges="15:14 14:2 2:3 3:18 18:19"/>
    </vehicle>
    <vehicle id="517" depart="517.00">
        <route edges="9:8 8:0 0:1 1:12 12:13"/>
    </vehicle>
    <vehicle id="521" depart="521.00">
        <route edges="15:14 14:2 2:1 1:0"/>
    </vehicle>
    <vehicle id="522" depart="522.00">
        <route edges="19:18 18:3 3:5 5:7"/>
    </vehicle>
    <vehicle id="523" depart="523.00">
        <route edges="11:10 10:0 0:4 4:6"/>
    </vehicle>
    <vehicle id="526" depart="526.00">
        <route edges="13:12 12:1 1:0 0:4 4:6"/>
    </vehicle>
    <vehicle id="528" depart="528.00">