<?xml version="1.0" encoding="UTF-8"?>

<!-- generated on Thu Oct 23 22:34:06 2014 by SUMO duarouter Version 0.18.0
<?xml version="1.0" encoding="UTF-8"?>

<configuration xmlns:xsi="http://www.w3.org/2001/XMLSchema-instance" xsi:noNamespaceSchemaLocation="http://sumo.sf.net/xsd/duarouterConfiguration.xsd">

    <input>
        <net-file value="corridor.net.xml"/>
        <trip-files value="experimentos/corridor.p0.4.1.trips.xml"/>
    </input>

    <output>
        <output-file value="experimentos/corridor.p0.4.1.rou.xml"/>
    </output>

    <processing>
        <ignore-errors value="true"/>
    </processing>

    <random_number>
        <random value="true"/>
    </random_number>

</configuration>
-->

<routes xmlns:xsi="http://www.w3.org/2001/XMLSchema-instance" xsi:noNamespaceSchemaLocation="http://sumo.sf.net/xsd/routes_file.xsd">
    <vehicle id="4" depart="1.60">
        <route edges="17:16 16:3 3:18 18:19"/>
    </vehicle>
    <vehicle id="5" depart="2.00">
        <route edges="7:5 5:3 3:2 2:14 14:15"/>
    </vehicle>
    <vehicle id="10" depart="4.00">
        <route edges="14:2 2:1 1:0 0:8"/>
    </vehicle>
    <vehicle id="13" depart="5.20">
        <route edges="6:4 4:0 0:1 1:2 2:3 3:18"/>
    </vehicle>
    <vehicle id="16" depart="6.40">
        <route edges="13:12 12:1 1:2 2:3 3:16 16:17"/>
    </vehicle>
    <vehicle id="17" depart="6.80">
        <route edges="15:14 14:2 2:1"/>
    </vehicle>
    <vehicle id="20" depart="8.00">
        <route edges="11:10 10:0 0:1 1:2 2:3 3:16 16:17"/>
    </vehicle>
    <vehicle id="21" depart="8.40">
        <route edges="7:5 5:3 3:2 2:1 1:12 12:13"/>
    </vehicle>
    <vehicle id="22" depart="8.80">
        <route edges="9:8 8:0 0:1 1:2 2:3 3:16"/>
    </vehicle>
    <vehicle id="25" depart="10.00">
        <route edges="15:14 14:2 2:3 3:5 5:7"/>
    </vehicle>
    <vehicle id="26" depart="10.40">
        <route edges="14:2 2:1 1:12"/>
    </vehicle>
    <vehicle id="27" depart="10.80">
        <route edges="11:10 10:0 0:4 4:6"/>
    </vehicle>
    <vehicle id="29" depart="11.60">
        <route edges="7:5 5:3 3:2"/>
    </vehicle>
    <vehicle id="30" depart="12.00">
        <route edges="19:18 18:3 3:2"/>
    </vehicle>
    <vehicle id="31" depart="12.40">
        <route edges="17:16 16:3 3:18 18:19"/>
    </vehicle>
    <vehicle id="32" depart="12.80">
        <route edges="3:2 2:14 14:15"/>
    </vehicle>
    <vehicle id="33" depart="13.20">
        <route edges="7:5 5:3 3:16"/>
    </vehicle>
    <vehicle id="34" depart="13.60">
        <route edges="11:10 10:0 0:1 1:2 2:14 14:15"/>
    </vehicle>
    <vehicle id="35" depart="14.00">
        <route edges="19:18 18:3 3:2 2:14 14:15"/>
    </vehicle>
    <vehicle id="36" depart="14.40">
        <route edges="4:0 0:1 1:12 12:13"/>
    </vehicle>
    <vehicle id="39" depart="15.60">
        <route edges="4:0 0:1 1:2 2:3 3:5 5:7"/>
    </vehicle>
    <vehicle id="41" depart="16.40">
        <route edges="11:10 10:0 0:4 4:6"/>
    </vehicle>
    <vehicle id="42" depart="16.80">
        <route edges="1:2 2:3 3:5"/>
    </vehicle>
    <vehicle id="43" depart="17.20">
        <route edges="4:0 0:1 1:2 2:3 3:18 18:19"/>
    </vehicle>
    <vehicle id="44" depart="17.60">
        <route edges="15:14 14:2 2:3"/>
    </vehicle>
    <vehicle id="45" depart="18.00">
        <route edges="14:2 2:1 1:12 12:13"/>
    </vehicle>
    <vehicle id="47" depart="18.80">
        <route edges="7:5 5:3 3:2 2:1 1:12 12:13"/>
    </vehicle>
    <vehicle id="48" depart="19.20">
        <route edges="15:14 14:2 2:1 1:0 0:4"/>
    </vehicle>
    <vehicle id="49" depart="19.60">
        <route edges="7:5 5:3 3:2 2:1 1:0 0:4 4:6"/>
    </vehicle>
    <vehicle id="51" depart="20.40">
        <route edges="13:12 12:1 1:2 2:3 3:5"/>
    </vehicle>
    <vehicle id="58" depart="23.20">
        <route edges="0:4 4:6"/>
    </vehicle>
    <vehicle id="59" depart="23.60">
        <route edges="0:1 1:2 2:3 3:5 5:7"/>
    </vehicle>
    <vehicle id="61" depart="24.40">
        <route edges="13:12 12:1 1:2 2:3 3:5 5:7"/>
    </vehicle>
    <vehicle id="65" depart="26.00">
        <route edges="6:4 4:0"/>
    </vehicle>
    <vehicle id="67" depart="26.80">
        <route edges="19:18 18:3 3:2 2:1 1:12 12:13"/>
    </vehicle>
    <vehicle id="71" depart="28.40">
        <route edges="7:5 5:3 3:2"/>
    </vehicle>
    <vehicle id="72" depart="28.80">
        <route edges="17:16 16:3 3:2 2:1 1:0 0:4 4:6"/>
    </vehicle>
    <vehicle id="76" depart="30.40">
        <route edges="6:4 4:0 0:1 1:2 2:3 3:5 5:7"/>
    </vehicle>
    <vehicle id="77" depart="30.80">
        <route edges="11:10 10:0 0:1 1:2 2:3 3:5 5:7"/>
    </vehicle>
    <vehicle id="78" depart="31.20">
        <route edges="17:16 16:3 3:5 5:7"/>
    </vehicle>
    <vehicle id="80" depart="32.00">
        <route edges="17:16 16:3 3:2 2:1 1:0 0:4 4:6"/>
    </vehicle>
    <vehicle id="81" depart="32.40">
        <route edges="15:14 14:2 2:3 3:5"/>
    </vehicle>
    <vehicle id="82" depart="32.80">
        <route edges="10:0 0:8 8:9"/>
    </vehicle>
    <vehicle id="84" depart="33.60">
        <route edges="9:8 8:0 0:4 4:6"/>
    </vehicle>
    <vehicle id="86" depart="34.40">
        <route edges="16:3 3:2 2:1 1:0 0:4 4:6"/>
    </vehicle>
    <vehicle id="88" depart="35.20">
        <route edges="11:10 10:0 0:4 4:6"/>
    </vehicle>
    <vehicle id="89" depart="35.60">
        <route edges="7:5 5:3 3:2 2:14 14:15"/>
    </vehicle>
    <vehicle id="90" depart="36.00">
        <route edges="7:5 5:3"/>
    </vehicle>
    <vehicle id="95" depart="38.00">
        <route edges="9:8 8:0 0:4 4:6"/>
    </vehicle>
    <vehicle id="96" depart="38.40">
        <route edges="15:14 14:2 2:3 3:5 5:7"/>
    </vehicle>
    <vehicle id="100" depart="40.00">
        <route edges="17:16 16:3 3:2 2:1 1:0 0:4"/>
    </vehicle>
    <vehicle id="101" depart="40.40">
        <route edges="3:2 2:1 1:12 12:13"/>
    </vehicle>
    <vehicle id="103" depart="41.20">
        <route edges="7:5 5:3 3:2 2:1 1:0 0:8 8:9"/>
    </vehicle>
    <vehicle id="104" depart="41.60">
        <route edges="12:1 1:0 0:4"/>
    </vehicle>
    <vehicle id="107" depart="42.80">
        <route edges="13:12 12:1 1:0 0:10"/>
    </vehicle>
    <vehicle id="108" depart="43.20">
        <route edges="7:5 5:3 3:2 2:1 1:0 0:10 10:11"/>
    </vehicle>
    <vehicle id="109" depart="43.60">
        <route edges="13:12 12:1 1:2 2:3 3:16 16:17"/>
    </vehicle>
    <vehicle id="110" depart="44.00">
        <route edges="6:4 4:0 0:1 1:2 2:3 3:18 18:19"/>
    </vehicle>
    <vehicle id="111" depart="44.40">
        <route edges="6:4 4:0 0:1 1:2 2:3 3:16"/>
    </vehicle>
    <vehicle id="112" depart="44.80">
        <route edges="6:4 4:0 0:1 1:2 2:3 3:5"/>
    </vehicle>
    <vehicle id="115" depart="46.00">
        <route edges="6:4 4:0"/>
    </vehicle>
    <vehicle id="118" depart="47.20">
        <route edges="9:8 8:0 0:1 1:12 12:13"/>
    </vehicle>
    <vehicle id="119" depart="47.60">
        <route edges="15:14 14:2 2:1 1:0 0:10 10:11"/>
    </vehicle>
    <vehicle id="120" depart="48.00">
        <route edges="19:18 18:3 3:2 2:1 1:12 12:13"/>
    </vehicle>
    <vehicle id="121" depart="48.40">
        <route edges="19:18 18:3 3:2 2:1 1:0 0:10 10:11"/>
    </vehicle>
    <vehicle id="122" depart="48.80">
        <route edges="14:2 2:1 1:0 0:4 4:6"/>
    </vehicle>
    <vehicle id="123" depart="49.20">
        <route edges="6:4 4:0 0:1 1:2 2:3 3:16 16:17"/>
    </vehicle>
    <vehicle id="126" depart="50.40">
        <route edges="17:16 16:3 3:2 2:1 1:0 0:4 4:6"/>
    </vehicle>
    <vehicle id="128" depart="51.20">
        <route edges="7:5 5:3 3:16"/>
    </vehicle>
    <vehicle id="130" depart="52.00">
        <route edges="3:5 5:7"/>
    </vehicle>
    <vehicle id="131" depart="52.40">
        <route edges="11:10 10:0 0:1 1:2 2:14"/>
    </vehicle>
    <vehicle id="133" depart="53.20">
        <route edges="19:18 18:3 3:5"/>
    </vehicle>
    <vehicle id="134" depart="53.60">
        <route edges="7:5 5:3 3:2 2:1 1:0 0:10 10:11"/>
    </vehicle>
    <vehicle id="139" depart="55.60">
        <route edges="5:3 3:2 2:14 14:15"/>
    </vehicle>
    <vehicle id="140" depart="56.00">
        <route edges="13:12 12:1 1:2 2:3 3:5"/>
    </vehicle>
    <vehicle id="141" depart="56.40">
        <route edges="11:10 10:0 0:1 1:2 2:3 3:16 16:17"/>
    </vehicle>
    <vehicle id="142" depart="56.80">
        <route edges="13:12 12:1 1:2 2:3 3:5 5:7"/>
    </vehicle>
    <vehicle id="143" depart="57.20">
        <route edges="6:4 4:0 0:1 1:12 12:13"/>
    </vehicle>
    <vehicle id="146" depart="58.40">
        <route edges="17:16 16:3 3:2 2:1 1:0"/>
    </vehicle>
    <vehicle id="149" depart="59.60">
        <route edges="19:18 18:3 3:2 2:14 14:15"/>
    </vehicle>
    <vehicle id="151" depart="60.40">
        <route edges="17:16 16:3 3:2"/>
    </vehicle>
    <vehicle id="152" depart="60.80">
        <route edges="9:8 8:0 0:1 1:2 2:14 14:15"/>
    </vehicle>
    <vehicle id="153" depart="61.20">
        <route edges="18:3 3:2 2:1 1:0 0:8 8:9"/>
    </vehicle>
    <vehicle id="154" depart="61.60">
        <route edges="4:0 0:1 1:2 2:3"/>
    </vehicle>
    <vehicle id="155" depart="62.00">
        <route edges="10:0 0:1 1:2 2:3 3:5 5:7"/>
    </vehicle>
    <vehicle id="156" depart="62.40">
        <route edges="9:8 8:0 0:10"/>
    </vehicle>
    <vehicle id="157" depart="62.80">
        <route edges="15:14 14:2 2:3"/>
    </vehicle>
    <vehicle id="161" depart="64.40">
        <route edges="7:5 5:3 3:16 16:17"/>
    </vehicle>
    <vehicle id="163" depart="65.20">
        <route edges="9:8 8:0 0:1 1:2 2:14 14:15"/>
    </vehicle>
    <vehicle id="165" depart="66.00">
        <route edges="13:12 12:1 1:0 0:8 8:9"/>
    </vehicle>
    <vehicle id="167" depart="66.80">
        <route edges="9:8 8:0 0:1 1:12 12:13"/>
    </vehicle>
    <vehicle id="169" depart="67.60">
        <route edges="10:0 0:1 1:2 2:3 3:5 5:7"/>
    </vehicle>
    <vehicle id="170" depart="68.00">
        <route edges="7:5 5:3 3:2 2:1 1:0 0:4"/>
    </vehicle>
    <vehicle id="172" depart="68.80">
        <route edges="14:2 2:1 1:0 0:10"/>
    </vehicle>
    <vehicle id="175" depart="70.00">
        <route edges="6:4 4:0 0:1"/>
    </vehicle>
    <vehicle id="177" depart="70.80">
        <route edges="15:14 14:2 2:3 3:5"/>
    </vehicle>
    <vehicle id="178" depart="71.20">
        <route edges="13:12 12:1 1:2 2:14 14:15"/>
    </vehicle>
    <vehicle id="180" depart="72.00">
        <route edges="7:5 5:3 3:2 2:1 1:0"/>
    </vehicle>
    <vehicle id="181" depart="72.40">
        <route edges="10:0 0:1 1:2 2:3 3:16 16:17"/>
    </vehicle>
    <vehicle id="182" depart="72.80">
        <route edges="7:5 5:3 3:2 2:1 1:0 0:8 8:9"/>
    </vehicle>
    <vehicle id="183" depart="73.20">
        <route edges="11:10 10:0 0:8 8:9"/>
    </vehicle>
    <vehicle id="184" depart="73.60">
        <route edges="19:18 18:3 3:5 5:7"/>
    </vehicle>
    <vehicle id="185" depart="74.00">
        <route edges="13:12 12:1 1:0 0:8 8:9"/>
    </vehicle>
    <vehicle id="188" depart="75.20">
        <route edges="7:5 5:3 3:18 18:19"/>
    </vehicle>
    <vehicle id="189" depart="75.60">
        <route edges="7:5 5:3 3:2 2:1 1:0 0:4 4:6"/>
    </vehicle>
    <vehicle id="191" depart="76.40">
        <route edges="7:5 5:3"/>
    </vehicle>
    <vehicle id="192" depart="76.80">
        <route edges="2:1 1:0 0:10"/>
    </vehicle>
    <vehicle id="193" depart="77.20">
        <route edges="10:0 0:1 1:2 2:14"/>
    </vehicle>
    <vehicle id="194" depart="77.60">
        <route edges="4:0 0:1 1:2 2:3 3:18"/>
    </vehicle>
    <vehicle id="195" depart="78.00">
        <route edges="6:4 4:0 0:1 1:2"/>
    </vehicle>
    <vehicle id="200" depart="80.00">
        <route edges="13:12 12:1 1:2 2:3 3:5 5:7"/>
    </vehicle>
    <vehicle id="202" depart="80.80">
        <route edges="13:12 12:1 1:0 0:10 10:11"/>
    </vehicle>
    <vehicle id="204" depart="81.60">
        <route edges="15:14 14:2 2:1 1:12"/>
    </vehicle>
    <vehicle id="206" depart="82.40">
        <route edges="16:3 3:2 2:1 1:12 12:13"/>
    </vehicle>
    <vehicle id="207" depart="82.80">
        <route edges="4:0 0:1 1:2 2:3 3:16"/>
    </vehicle>
    <vehicle id="211" depart="84.40">
        <route edges="4:0 0:1 1:12 12:13"/>
    </vehicle>
    <vehicle id="213" depart="85.20">
        <route edges="15:14 14:2 2:1 1:0 0:4 4:6"/>
    </vehicle>
    <vehicle id="214" depart="85.60">
        <route edges="2:1 1:0 0:8 8:9"/>
    </vehicle>
    <vehicle id="215" depart="86.00">
        <route edges="0:4 4:6"/>
    </vehicle>
    <vehicle id="217" depart="86.80">
        <route edges="14:2 2:3"/>
    </vehicle>
    <vehicle id="218" depart="87.20">
        <route edges="17:16 16:3 3:5 5:7"/>
    </vehicle>
    <vehicle id="219" depart="87.60">
        <route edges="15:14 14:2 2:3 3:18 18:19"/>
    </vehicle>
    <vehicle id="221" depart="88.40">
        <route edges="6:4 4:0 0:1 1:2 2:3"/>
    </vehicle>
    <vehicle id="222" depart="88.80">
        <route edges="3:2 2:1 1:12"/>
    </vehicle>
    <vehicle id="227" depart="90.80">
        <route edges="6:4 4:0 0:1 1:2 2:14"/>
    </vehicle>
    <vehicle id="229" depart="91.60">
        <route edges="9:8 8:0 0:4 4:6"/>
    </vehicle>
    <vehicle id="230" depart="92.00">
        <route edges="12:1 1:0 0:10 10:11"/>
    </vehicle>
    <vehicle id="234" depart="93.60">
        <route edges="2:1 1:0 0:4 4:6"/>
    </vehicle>
    <vehicle id="235" depart="94.00">
        <route edges="15:14 14:2 2:1 1:0 0:10"/>
    </vehicle>
    <vehicle id="238" depart="95.20">
        <route edges="7:5 5:3 3:2 2:14 14:15"/>
    </vehicle>
    <vehicle id="245" depart="98.00">
        <route edges="6:4 4:0 0:1 1:2"/>
    </vehicle>
    <vehicle id="249" depart="99.60">
        <route edges="7:5 5:3 3:2"/>
    </vehicle>
    <vehicle id="250" depart="100.00">
        <route edges="19:18 18:3 3:2 2:1 1:0 0:10"/>
    </vehicle>
    <vehicle id="251" depart="100.40">
        <route edges="10:0 0:1 1:2 2:3 3:5"/>
    </vehicle>
    <vehicle id="252" depart="100.80">
        <route edges="4:0 0:1 1:2 2:14 14:15"/>
    </vehicle>
    <vehicle id="253" depart="101.20">
        <route edges="6:4 4:0 0:1 1:12"/>
    </vehicle>
    <vehicle id="255" depart="102.00">
        <route edges="13:12 12:1 1:2 2:3"/>
    </vehicle>
    <vehicle id="258" depart="103.20">
        <route edges="1:0"/>
    </vehicle>
    <vehicle id="260" depart="104.00">
        <route edges="11:10 10:0 0:1 1:2 2:3"/>
    </vehicle>
    <vehicle id="261" depart="104.40">
        <route edges="7:5 5:3"/>
    </vehicle>
    <vehicle id="264" depart="105.60">
        <route edges="4:0 0:1 1:2 2:3 3:5 5:7"/>
    </vehicle>
    <vehicle id="265" depart="106.00">
        <route edges="16:3 3:2"/>
    </vehicle>
    <vehicle id="267" depart="106.80">
        <route edges="5:3 3:2 2:1 1:0 0:10 10:11"/>
    </vehicle>
    <vehicle id="268" depart="107.20">
        <route edges="2:1 1:0"/>
    </vehicle>
    <vehicle id="269" depart="107.60">
        <route edges="1:2 2:3 3:5"/>
    </vehicle>
    <vehicle id="270" depart="108.00">
        <route edges="4:0 0:1 1:2 2:3 3:5 5:7"/>
    </vehicle>
    <vehicle id="271" depart="108.40">
        <route edges="11:10 10:0 0:1 1:12 12:13"/>
    </vehicle>
    <vehicle id="273" depart="109.20">
        <route edges="15:14 14:2 2:1 1:0 0:4 4:6"/>
    </vehicle>
    <vehicle id="274" depart="109.60">
        <route edges="9:8 8:0 0:4 4:6"/>
    </vehicle>
    <vehicle id="278" depart="111.20">
        <route edges="6:4 4:0 0:10"/>
    </vehicle>
    <vehicle id="281" depart="112.40">
        <route edges="7:5 5:3 3:2 2:1"/>
    </vehicle>
    <vehicle id="283" depart="113.20">
        <route edges="0:8 8:9"/>
    </vehicle>
    <vehicle id="284" depart="113.60">
        <route edges="2:1 1:0 0:4 4:6"/>
    </vehicle>
    <vehicle id="285" depart="114.00">
        <route edges="6:4 4:0 0:1 1:2 2:3 3:18 18:19"/>
    </vehicle>
    <vehicle id="286" depart="114.40">
        <route edges="15:14 14:2 2:1 1:0 0:8"/>
    </vehicle>
    <vehicle id="288" depart="115.20">
        <route edges="5:3 3:16"/>
    </vehicle>
    <vehicle id="290" depart="116.00">
        <route edges="15:14 14:2 2:1 1:12 12:13"/>
    </vehicle>
    <vehicle id="293" depart="117.20">
        <route edges="6:4 4:0 0:1 1:2 2:3 3:18 18:19"/>
    </vehicle>
    <vehicle id="294" depart="117.60">
        <route edges="6:4 4:0 0:1 1:2"/>
    </vehicle>
    <vehicle id="295" depart="118.00">
        <route edges="7:5 5:3 3:16 16:17"/>
    </vehicle>
    <vehicle id="297" depart="118.80">
        <route edges="15:14 14:2 2:3 3:5"/>
    </vehicle>
    <vehicle id="298" depart="119.20">
        <route edges="9:8 8:0 0:1 1:2 2:3 3:18 18:19"/>
    </vehicle>
    <vehicle id="301" depart="120.40">
        <route edges="7:5 5:3 3:2 2:1 1:0 0:8 8:9"/>
    </vehicle>
    <vehicle id="302" depart="120.80">
        <route edges="11:10 10:0 0:4 4:6"/>
    </vehicle>
    <vehicle id="303" depart="121.20">
        <route edges="12:1 1:0 0:10 10:11"/>
    </vehicle>
    <vehicle id="304" depart="121.60">
        <route edges="12:1 1:0 0:4 4:6"/>
    </vehicle>
    <vehicle id="307" depart="122.80">
        <route edges="7:5 5:3 3:2 2:1 1:0 0:8 8:9"/>
    </vehicle>
    <vehicle id="309" depart="123.60">
        <route edges="4:0 0:1 1:2"/>
    </vehicle>
    <vehicle id="311" depart="124.40">
        <route edges="5:3 3:2 2:1 1:0 0:10 10:11"/>
    </vehicle>
    <vehicle id="312" depart="124.80">
        <route edges="17:16 16:3 3:18 18:19"/>
    </vehicle>
    <vehicle id="313" depart="125.20">
        <route edges="5:3 3:2 2:1 1:0 0:8 8:9"/>
    </vehicle>
    <vehicle id="316" depart="126.40">
        <route edges="17:16 16:3 3:2 2:1 1:0 0:4 4:6"/>
    </vehicle>
    <vehicle id="319" depart="127.60">
        <route edges="9:8 8:0 0:1 1:2"/>
    </vehicle>
    <vehicle id="323" depart="129.20">
        <route edges="6:4 4:0 0:10 10:11"/>
    </vehicle>
    <vehicle id="324" depart="129.60">
        <route edges="13:12 12:1 1:0 0:4 4:6"/>
    </vehicle>
    <vehicle id="325" depart="130.00">
        <route edges="6:4 4:0 0:10 10:11"/>
    </vehicle>
    <vehicle id="326" depart="130.40">
        <route edges="6:4 4:0 0:1 1:12 12:13"/>
    </vehicle>
    <vehicle id="327" depart="130.80">
        <route edges="12:1 1:2 2:3 3:16 16:17"/>
    </vehicle>
    <vehicle id="328" depart="131.20">
        <route edges="7:5 5:3 3:2 2:1 1:0 0:4 4:6"/>
    </vehicle>
    <vehicle id="329" depart="131.60">
        <route edges="6:4 4:0 0:1 1:2 2:14 14:15"/>
    </vehicle>
    <vehicle id="332" depart="132.80">
        <route edges="7:5 5:3 3:18 18:19"/>
    </vehicle>
    <vehicle id="333" depart="133.20">
        <route edges="11:10 10:0 0:1 1:2 2:3 3:18 18:19"/>
    </vehicle>
    <vehicle id="338" depart="135.20">
        <route edges="7:5 5:3 3:2"/>
    </vehicle>
    <vehicle id="339" depart="135.60">
        <route edges="3:2"/>
    </vehicle>
    <vehicle id="341" depart="136.40">
        <route edges="0:1 1:2 2:3"/>
    </vehicle>
    <vehicle id="342" depart="136.80">
        <route edges="17:16 16:3 3:2 2:1 1:0 0:4 4:6"/>
    </vehicle>
    <vehicle id="343" depart="137.20">
        <route edges="15:14 14:2 2:3 3:5 5:7"/>
    </vehicle>
    <vehicle id="347" depart="138.80">
        <route edges="9:8 8:0 0:1 1:2"/>
    </vehicle>
    <vehicle id="348" depart="139.20">
        <route edges="12:1 1:2 2:3 3:16 16:17"/>
    </vehicle>
    <vehicle id="350" depart="140.00">
        <route edges="9:8 8:0 0:10 10:11"/>
    </vehicle>
    <vehicle id="352" depart="140.80">
        <route edges="5:3 3:2 2:1 1:0 0:8 8:9"/>
    </vehicle>
    <vehicle id="353" depart="141.20">
        <route edges="7:5 5:3 3:18 18:19"/>
    </vehicle>
    <vehicle id="354" depart="141.60">
        <route edges="4:0 0:8 8:9"/>
    </vehicle>
    <vehicle id="355" depart="142.00">
        <route edges="17:16 16:3 3:2 2:1 1:0 0:10 10:11"/>
    </vehicle>
    <vehicle id="362" depart="144.80">
        <route edges="13:12 12:1 1:0 0:4 4:6"/>
    </vehicle>
    <vehicle id="364" depart="145.60">
        <route edges="19:18 18:3 3:2 2:1 1:0 0:8 8:9"/>
    </vehicle>
    <vehicle id="368" depart="147.20">
        <route edges="14:2 2:3 3:16 16:17"/>
    </vehicle>
    <vehicle id="369" depart="147.60">
        <route edges="8:0 0:4 4:6"/>
    </vehicle>
    <vehicle id="370" depart="148.00">
        <route edges="4:0 0:8 8:9"/>
    </vehicle>
    <vehicle id="371" depart="148.40">
        <route edges="9:8 8:0 0:1 1:2 2:3 3:5 5:7"/>
    </vehicle>
    <vehicle id="373" depart="149.20">
        <route edges="9:8 8:0 0:1 1:12 12:13"/>
    </vehicle>
    <vehicle id="374" depart="149.60">
        <route edges="4:0 0:1 1:12 12:13"/>
    </vehicle>
    <vehicle id="378" depart="151.20">
        <route edges="3:5 5:7"/>
    </vehicle>
    <vehicle id="379" depart="151.60">
        <route edges="19:18 18:3 3:5 5:7"/>
    </vehicle>
    <vehicle id="383" depart="153.20">
        <route edges="4:0 0:1 1:2 2:14"/>
    </vehicle>
    <vehicle id="384" depart="153.60">
        <route edges="3:2 2:1 1:0"/>
    </vehicle>
    <vehicle id="386" depart="154.40">
        <route edges="7:5 5:3 3:2 2:1 1:12"/>
    </vehicle>
    <vehicle id="391" depart="156.40">
        <route edges="13:12 12:1 1:0 0:4 4:6"/>
    </vehicle>
    <vehicle id="397" depart="158.80">
        <route edges="7:5 5:3 3:2"/>
    </vehicle>
    <vehicle id="402" depart="160.80">
        <route edges="14:2"/>
    </vehicle>
    <vehicle id="403" depart="161.20">
        <route edges="5:3 3:2 2:1 1:0 0:8 8:9"/>
    </vehicle>
    <vehicle id="404" depart="161.60">
        <route edges="7:5 5:3 3:16 16:17"/>
    </vehicle>
    <vehicle id="406" depart="162.40">
        <route edges="6:4 4:0 0:1 1:2 2:3"/>
    </vehicle>
    <vehicle id="408" depart="163.20">
        <route edges="7:5 5:3 3:2 2:1 1:0 0:4"/>
    </vehicle>
    <vehicle id="411" depart="164.40">
        <route edges="4:0 0:1 1:2 2:3 3:16 16:17"/>
    </vehicle>
    <vehicle id="413" depart="165.20">
        <route edges="16:3 3:18 18:19"/>
    </vehicle>
    <vehicle id="414" depart="165.60">
        <route edges="7:5 5:3 3:2 2:1"/>
    </vehicle>
    <vehicle id="416" depart="166.40">
        <route edges="7:5 5:3"/>
    </vehicle>
    <vehicle id="418" depart="167.20">
        <route edges="17:16 16:3 3:2 2:1 1:0 0:4 4:6"/>
    </vehicle>
    <vehicle id="421" depart="168.40">
        <route edges="3:2 2:1 1:0 0:4"/>
    </vehicle>
    <vehicle id="422" depart="168.80">
        <route edges="18:3 3:2 2:1 1:0 0:4 4:6"/>
    </vehicle>
    <vehicle id="423" depart="169.20">
        <route edges="11:10 10:0 0:8"/>
    </vehicle>
    <vehicle id="424" depart="169.60">
        <route edges="7:5 5:3 3:2 2:1 1:12 12:13"/>
    </vehicle>
    <vehicle id="426" depart="170.40">
        <route edges="5:3 3:2 2:1 1:0 0:8 8:9"/>
    </vehicle>
    <vehicle id="427" depart="170.80">
        <route edges="17:16 16:3 3:2 2:1 1:12"/>
    </vehicle>
    <vehicle id="428" depart="171.20">
        <route edges="13:12 12:1 1:0 0:10 10:11"/>
    </vehicle>
    <vehicle id="429" depart="171.60">
        <route edges="6:4 4:0 0:1 1:2 2:3 3:18"/>
    </vehicle>
    <vehicle id="432" depart="172.80">
        <route edges="13:12 12:1 1:0 0:10 10:11"/>
    </vehicle>
    <vehicle id="435" depart="174.00">
        <route edges="8:0 0:1 1:2 2:3 3:18 18:19"/>
    </vehicle>
    <vehicle id="438" depart="175.20">
        <route edges="7:5 5:3 3:18 18:19"/>
    </vehicle>
    <vehicle id="440" depart="176.00">
        <route edges="19:18 18:3 3:2 2:1 1:12 12:13"/>
    </vehicle>
    <vehicle id="442" depart="176.80">
        <route edges="13:12 12:1 1:2 2:3 3:5 5:7"/>
    </vehicle>
    <vehicle id="445" depart="178.00">
        <route edges="4:0 0:1 1:2 2:3 3:16 16:17"/>
    </vehicle>
    <vehicle id="447" depart="178.80">
        <route edges="6:4 4:0 0:1 1:2 2:3 3:5 5:7"/>
    </vehicle>
    <vehicle id="450" depart="180.00">
        <route edges="10:0 0:1 1:2 2:3 3:5 5:7"/>
    </vehicle>
    <vehicle id="451" depart="180.40">
        <route edges="6:4 4:0 0:1 1:2 2:3 3:5 5:7"/>
    </vehicle>
    <vehicle id="452" depart="180.80">
        <route edges="15:14 14:2 2:3 3:5 5:7"/>
    </vehicle>
    <vehicle id="453" depart="181.20">
        <route edges="18:3 3:2 2:1 1:0 0:8"/>
    </vehicle>
    <vehicle id="454" depart="181.60">
        <route edges="13:12 12:1 1:2 2:14"/>
    </vehicle>
    <vehicle id="455" depart="182.00">
        <route edges="2:3 3:5 5:7"/>
    </vehicle>
    <vehicle id="456" depart="182.40">
        <route edges="7:5 5:3 3:2 2:1 1:0"/>
    </vehicle>
    <vehicle id="457" depart="182.80">
        <route edges="7:5 5:3 3:2 2:1 1:0 0:8 8:9"/>
    </vehicle>
    <vehicle id="458" depart="183.20">
        <route edges="6:4 4:0 0:8 8:9"/>
    </vehicle>
    <vehicle id="459" depart="183.60">
        <route edges="12:1 1:2 2:3 3:5"/>
    </vehicle>
    <vehicle id="460" depart="184.00">
        <route edges="17:16 16:3 3:5"/>
    </vehicle>
    <vehicle id="461" depart="184.40">
        <route edges="5:3 3:18 18:19"/>
    </vehicle>
    <vehicle id="468" depart="187.20">
        <route edges="6:4 4:0 0:8 8:9"/>
    </vehicle>
    <vehicle id="470" depart="188.00">
        <route edges="13:12 12:1 1:0 0:4 4:6"/>
    </vehicle>
    <vehicle id="471" depart="188.40">
        <route edges="13:12 12:1 1:0 0:4 4:6"/>
    </vehicle>
    <vehicle id="472" depart="188.80">
        <route edges="15:14 14:2 2:3 3:5 5:7"/>
    </vehicle>
    <vehicle id="473" depart="189.20">
        <route edges="11:10 10:0 0:8"/>
    </vehicle>
    <vehicle id="474" depart="189.60">
        <route edges="7:5 5:3 3:2 2:1 1:0 0:10 10:11"/>
    </vehicle>
    <vehicle id="475" depart="190.00">
        <route edges="19:18 18:3 3:2 2:1 1:0 0:4 4:6"/>
    </vehicle>
    <vehicle id="476" depart="190.40">
        <route edges="7:5 5:3 3:2 2:14 14:15"/>
    </vehicle>
    <vehicle id="477" depart="190.80">
        <route edges="8:0 0:1 1:2 2:3 3:5"/>
    </vehicle>
    <vehicle id="479" depart="191.60">
        <route edges="13:12 12:1 1:0 0:10 10:11"/>
    </vehicle>
    <vehicle id="480" depart="192.00">
        <route edges="17:16 16:3 3:2 2:1 1:12"/>
    </vehicle>
    <vehicle id="482" depart="192.80">
        <route edges="6:4 4:0 0:1 1:2 2:3 3:18 18:19"/>
    </vehicle>
    <vehicle id="484" depart="193.60">
        <route edges="15:14 14:2 2:3 3:18"/>
    </vehicle>
    <vehicle id="485" depart="194.00">
        <route edges="15:14 14:2 2:1 1:0 0:4 4:6"/>
    </vehicle>
    <vehicle id="491" depart="196.40">
        <route edges="9:8 8:0 0:1 1:2 2:3 3:16 16:17"/>
    </vehicle>
    <vehicle id="493" depart="197.20">
        <route edges="3:2 2:14 14:15"/>
    </vehicle>
    <vehicle id="494" depart="197.60">
        <route edges="7:5 5:3 3:16 16:17"/>
    </vehicle>
    <vehicle id="495" depart="198.00">
        <route edges="6:4 4:0 0:10"/>
    </vehicle>
    <vehicle id="496" depart="198.40">
        <route edges="0:1 1:2 2:3 3:16"/>
    </vehicle>
    <vehicle id="503" depart="201.20">
        <route edges="1:2 2:3 3:5 5:7"/>
    </vehicle>
    <vehicle id="507" depart="202.80">
        <route edges="4:0 0:8 8:9"/>
    </vehicle>
    <vehicle id="508" depart="203.20">
        <route edges="16:3 3:2 2:1 1:0 0:10 10:11"/>
    </vehicle>
    <vehicle id="512" depart="204.80">
        <route edges="9:8 8:0"/>
    </vehicle>
    <vehicle id="513" depart="205.20">
        <route edges="11:10 10:0 0:4 4:6"/>
    </vehicle>
    <vehicle id="516" depart="206.40">
        <route edges="3:5 5:7"/>
    </vehicle>
    <vehicle id="517" depart="206.80">
        <route edges="12:1 1:2 2:3 3:5 5:7"/>
    </vehicle>
    <vehicle id="521" depart="208.40">
        <route edges="10:0 0:1 1:2 2:3 3:5 5:7"/>
    </vehicle>
    <vehicle id="522" depart="208.80">
        <route edges="6:4 4:0 0:1 1:2 2:14"/>
    </vehicle>
    <vehicle id="524" depart="209.60">
        <route edges="16:3 3:2 2:1 1:0"/>
    </vehicle>
    <vehicle id="525" depart="210.00">
        <route edges="18:3 3:2 2:1 1:0 0:4 4:6"/>
    </vehicle>
    <vehicle id="526" depart="210.40">
        <route edges="3:2 2:1 1:0 0:4 4:6"/>
    </vehicle>
    <vehicle id="527" depart="210.80">
        <route edges="1:2 2:3 3:5"/>
    </vehicle>
    <vehicle id="528" depart="211.20">
        <route edges="9:8 8:0 0:1 1:2 2:3 3:16 16:17"/>
    </vehicle>
    <vehicle id="531" depart="212.40">
        <route edges="6:4 4:0 0:1 1:12 12:13"/>
    </vehicle>
    <vehicle id="532" depart="212.80">
        <route edges="5:3 3:2"/>
    </vehicle>
    <vehicle id="534" depart="213.60">
        <route edges="2:14 14:15"/>
    </vehicle>
    <vehicle id="535" depart="214.00">
        <route edges="18:3 3:2"/>
    </vehicle>
    <vehicle id="536" depart="214.40">
        <route edges="7:5 5:3 3:2 2:1 1:0 0:4 4:6"/>
    </vehicle>
    <vehicle id="537" depart="214.80">
        <route edges="7:5 5:3"/>
    </vehicle>
    <vehicle id="538" depart="215.20">
        <route edges="6:4 4:0 0:10 10:11"/>
    </vehicle>
    <vehicle id="540" depart="216.00">
        <route edges="9:8 8:0 0:1 1:2 2:3 3:5"/>
    </vehicle>
    <vehicle id="542" depart="216.80">
        <route edges="9:8 8:0 0:1 1:2 2:3 3:5 5:7"/>
    </vehicle>
    <vehicle id="543" depart="217.20">
        <route edges="9:8 8:0 0:1 1:12 12:13"/>
    </vehicle>
    <vehicle id="544" depart="217.60">
        <route edges="6:4 4:0 0:1 1:12 12:13"/>
    </vehicle>
    <vehicle id="546" depart="218.40">
        <route edges="15:14 14:2 2:1 1:0 0:4"/>
    </vehicle>
    <vehicle id="547" depart="218.80">
        <route edges="17:16 16:3 3:2 2:1 1:12 12:13"/>
    </vehicle>
    <vehicle id="548" depart="219.20">
        <route edges="9:8 8:0 0:1 1:12 12:13"/>
    </vehicle>
    <vehicle id="549" depart="219.60">