<?xml version="1.0" encoding="UTF-8"?>

<!-- generated on Thu Oct 23 22:32:59 2014 by SUMO duarouter Version 0.18.0
<?xml version="1.0" encoding="UTF-8"?>

<configuration xmlns:xsi="http://www.w3.org/2001/XMLSchema-instance" xsi:noNamespaceSchemaLocation="http://sumo.sf.net/xsd/duarouterConfiguration.xsd">

    <input>
        <net-file value="corridor.net.xml"/>
        <trip-files value="experimentos/corridor.p0.1.1.trips.xml"/>
    </input>

    <output>
        <output-file value="experimentos/corridor.p0.1.1.rou.xml"/>
    </output>

    <processing>
        <ignore-errors value="true"/>
    </processing>

    <random_number>
        <random value="true"/>
    </random_number>

</configuration>
-->

<routes xmlns:xsi="http://www.w3.org/2001/XMLSchema-instance" xsi:noNamespaceSchemaLocation="http://sumo.sf.net/xsd/routes_file.xsd">
    <vehicle id="6" depart="0.60">
        <route edges="6:4 4:0 0:1 1:2 2:3 3:5"/>
    </vehicle>
    <vehicle id="7" depart="0.70">
        <route edges="14:2 2:1 1:0 0:4 4:6"/>
    </vehicle>
    <vehicle id="9" depart="0.90">
        <route edges="15:14 14:2 2:3 3:5 5:7"/>
    </vehicle>
    <vehicle id="11" depart="1.10">
        <route edges="15:14 14:2 2:1 1:0 0:4 4:6"/>
    </vehicle>
    <vehicle id="14" depart="1.40">
        <route edges="1:2 2:3 3:5 5:7"/>
    </vehicle>
    <vehicle id="17" depart="1.70">
        <route edges="19:18 18:3 3:2 2:14 14:15"/>
    </vehicle>
    <vehicle id="18" depart="1.80">
        <route edges="19:18 18:3 3:2"/>
    </vehicle>
    <vehicle id="21" depart="2.10">
        <route edges="3:2 2:1 1:0 0:10 10:11"/>
    </vehicle>
    <vehicle id="22" depart="2.20">
        <route edges="0:1 1:2 2:3 3:18"/>
    </vehicle>
    <vehicle id="23" depart="2.30">
        <route edges="15:14 14:2 2:3 3:5"/>
    </vehicle>
    <vehicle id="25" depart="2.50">
        <route edges="2:3 3:16 16:17"/>
    </vehicle>
    <vehicle id="26" depart="2.60">
        <route edges="7:5 5:3 3:2 2:1 1:0 0:4 4:6"/>
    </vehicle>
    <vehicle id="27" depart="2.70">
        <route edges="15:14 14:2 2:1 1:12 12:13"/>
    </vehicle>
    <vehicle id="28" depart="2.80">
        <route edges="14:2 2:3 3:5 5:7"/>
    </vehicle>
    <vehicle id="30" depart="3.00">
        <route edges="15:14 14:2 2:1 1:0"/>
    </vehicle>
    <vehicle id="31" depart="3.10">
        <route edges="13:12 12:1 1:2 2:3 3:5"/>
    </vehicle>
    <vehicle id="32" depart="3.20">
        <route edges="18:3 3:5"/>
    </vehicle>
    <vehicle id="35" depart="3.50">
        <route edges="17:16 16:3 3:2 2:1 1:0 0:4 4:6"/>
    </vehicle>
    <vehicle id="36" depart="3.60">
        <route edges="16:3 3:2 2:14 14:15"/>
    </vehicle>
    <vehicle id="38" depart="3.80">
        <route edges="17:16 16:3 3:2 2:1 1:0 0:4 4:6"/>
    </vehicle>
    <vehicle id="40" depart="4.00">
        <route edges="19:18 18:3 3:16 16:17"/>
    </vehicle>
    <vehicle id="41" depart="4.10">
        <route edges="16:3 3:2 2:1 1:0 0:4 4:6"/>
    </vehicle>
    <vehicle id="42" depart="4.20">
        <route edges="14:2 2:3 3:5 5:7"/>
    </vehicle>
    <vehicle id="43" depart="4.30">
        <route edges="18:3 3:16 16:17"/>
    </vehicle>
    <vehicle id="45" depart="4.50">
        <route edges="1:0 0:4 4:6"/>
    </vehicle>
    <vehicle id="46" depart="4.60">
        <route edges="3:2 2:1 1:0 0:4 4:6"/>
    </vehicle>
    <vehicle id="49" depart="4.90">
        <route edges="10:0 0:1 1:2 2:3 3:5"/>
    </vehicle>
    <vehicle id="51" depart="5.10">
        <route edges="14:2 2:1 1:0 0:4 4:6"/>
    </vehicle>
    <vehicle id="54" depart="5.40">
        <route edges="0:1 1:2 2:14 14:15"/>
    </vehicle>
    <vehicle id="58" depart="5.80">
        <route edges="3:2 2:1 1:12"/>
    </vehicle>
    <vehicle id="60" depart="6.00">
        <route edges="3:2 2:1 1:0 0:4 4:6"/>
    </vehicle>
    <vehicle id="62" depart="6.20">
        <route edges="9:8 8:0 0:1"/>
    </vehicle>
    <vehicle id="63" depart="6.30">
        <route edges="13:12 12:1 1:0 0:4 4:6"/>
    </vehicle>
    <vehicle id="64" depart="6.40">
        <route edges="12:1 1:0 0:4 4:6"/>
    </vehicle>
    <vehicle id="66" depart="6.60">
        <route edges="19:18 18:3 3:2"/>
    </vehicle>
    <vehicle id="68" depart="6.80">
        <route edges="6:4 4:0 0:1 1:2 2:3 3:5"/>
    </vehicle>
    <vehicle id="72" depart="7.20">
        <route edges="12:1 1:2 2:3 3:16 16:17"/>
    </vehicle>
    <vehicle id="74" depart="7.40">
        <route edges="12:1 1:2 2:14"/>
    </vehicle>
    <vehicle id="76" depart="7.60">
        <route edges="13:12 12:1 1:2 2:3 3:18 18:19"/>
    </vehicle>
    <vehicle id="77" depart="7.70">
        <route edges="2:3 3:16 16:17"/>
    </vehicle>
    <vehicle id="80" depart="8.00">
        <route edges="3:2 2:1 1:0 0:4 4:6"/>
    </vehicle>
    <vehicle id="82" depart="8.20">
        <route edges="17:16 16:3 3:5"/>
    </vehicle>
    <vehicle id="85" depart="8.50">
        <route edges="16:3 3:5"/>
    </vehicle>
    <vehicle id="86" depart="8.60">
        <route edges="13:12 12:1 1:2 2:3 3:5"/>
    </vehicle>
    <vehicle id="91" depart="9.10">
        <route edges="13:12 12:1 1:0 0:4"/>
    </vehicle>
    <vehicle id="92" depart="9.20">
        <route edges="6:4 4:0 0:1 1:2 2:3 3:5 5:7"/>
    </vehicle>
    <vehicle id="93" depart="9.30">
        <route edges="15:14 14:2 2:1 1:0"/>
    </vehicle>
    <vehicle id="94" depart="9.40">
        <route edges="17:16 16:3 3:18"/>
    </vehicle>
    <vehicle id="95" depart="9.50">
        <route edges="3:2 2:1 1:0 0:8 8:9"/>
    </vehicle>
    <vehicle id="98" depart="9.80">
        <route edges="2:1 1:0 0:4 4:6"/>
    </vehicle>
    <vehicle id="100" depart="10.00">
        <route edges="14:2 2:3"/>
    </vehicle>
    <vehicle id="101" depart="10.10">
        <route edges="17:16 16:3 3:2 2:1 1:0 0:4 4:6"/>
    </vehicle>
    <vehicle id="103" depart="10.30">
        <route edges="10:0 0:1 1:2 2:14 14:15"/>
    </vehicle>
    <vehicle id="106" depart="10.60">
        <route edges="15:14 14:2 2:3 3:16 16:17"/>
    </vehicle>
    <vehicle id="107" depart="10.70">
        <route edges="7:5 5:3 3:2"/>
    </vehicle>
    <vehicle id="109" depart="10.90">
        <route edges="9:8 8:0 0:4 4:6"/>
    </vehicle>
    <vehicle id="110" depart="11.00">
        <route edges="5:3 3:2 2:14 14:15"/>
    </vehicle>
    <vehicle id="111" depart="11.10">
        <route edges="19:18 18:3 3:2 2:1"/>
    </vehicle>
    <vehicle id="114" depart="11.40">
        <route edges="17:16 16:3 3:2 2:1 1:0 0:4 4:6"/>
    </vehicle>
    <vehicle id="117" depart="11.70">
        <route edges="3:2 2:14 14:15"/>
    </vehicle>
    <vehicle id="118" depart="11.80">
        <route edges="10:0 0:1 1:2 2:3 3:5 5:7"/>
    </vehicle>
    <vehicle id="120" depart="12.00">
        <route edges="19:18 18:3 3:2"/>
    </vehicle>
    <vehicle id="121" depart="12.10">
        <route edges="13:12 12:1 1:2 2:3 3:16"/>
    </vehicle>
    <vehicle id="123" depart="12.30">
        <route edges="16:3 3:2 2:1 1:12 12:13"/>
    </vehicle>
    <vehicle id="126" depart="12.60">
        <route edges="19:18 18:3 3:2 2:1 1:0 0:10 10:11"/>
    </vehicle>
    <vehicle id="127" depart="12.70">
        <route edges="6:4 4:0 0:1 1:2 2:3"/>
    </vehicle>
    <vehicle id="128" depart="12.80">
        <route edges="17:16 16:3 3:2 2:1 1:0 0:4 4:6"/>
    </vehicle>
    <vehicle id="130" depart="13.00">
        <route edges="11:10 10:0 0:1 1:2 2:3 3:18 18:19"/>
    </vehicle>
    <vehicle id="131" depart="13.10">
        <route edges="15:14 14:2 2:3 3:16"/>
    </vehicle>
    <vehicle id="132" depart="13.20">
        <route edges="17:16 16:3 3:5"/>
    </vehicle>
    <vehicle id="134" depart="13.40">
        <route edges="13:12 12:1 1:2 2:3"/>
    </vehicle>
    <vehicle id="141" depart="14.10">
        <route edges="6:4 4:0 0:1 1:2 2:3"/>
    </vehicle>
    <vehicle id="143" depart="14.30">
        <route edges="3:2 2:1 1:0 0:8 8:9"/>
    </vehicle>
    <vehicle id="144" depart="14.40">
        <route edges="9:8 8:0 0:4 4:6"/>
    </vehicle>
    <vehicle id="145" depart="14.50">
        <route edges="0:4 4:6"/>
    </vehicle>
    <vehicle id="146" depart="14.60">
        <route edges="11:10 10:0 0:1 1:12 12:13"/>
    </vehicle>
    <vehicle id="147" depart="14.70">
        <route edges="6:4 4:0 0:1 1:2 2:3 3:18 18:19"/>
    </vehicle>
    <vehicle id="148" depart="14.80">
        <route edges="9:8 8:0 0:4 4:6"/>
    </vehicle>
    <vehicle id="150" depart="15.00">
        <route edges="15:14 14:2 2:3 3:16 16:17"/>
    </vehicle>
    <vehicle id="151" depart="15.10">
        <route edges="0:1 1:2 2:3 3:5 5:7"/>
    </vehicle>
    <vehicle id="156" depart="15.60">
        <route edges="15:14 14:2 2:1 1:0 0:10 10:11"/>
    </vehicle>
    <vehicle id="157" depart="15.70">
        <route edges="14:2 2:3 3:16 16:17"/>
    </vehicle>
    <vehicle id="158" depart="15.80">
        <route edges="6:4 4:0 0:1 1:2 2:3 3:5 5:7"/>
    </vehicle>
    <vehicle id="159" depart="15.90">
        <route edges="15:14 14:2 2:1 1:0 0:4 4:6"/>
    </vehicle>
    <vehicle id="160" depart="16.00">
        <route edges="9:8 8:0 0:1 1:2 2:3 3:5 5:7"/>
    </vehicle>
    <vehicle id="161" depart="16.10">
        <route edges="7:5 5:3 3:2 2:1 1:0 0:4"/>
    </vehicle>
    <vehicle id="162" depart="16.20">
        <route edges="9:8 8:0 0:1 1:12 12:13"/>
    </vehicle>
    <vehicle id="164" depart="16.40">
        <route edges="1:2 2:14"/>
    </vehicle>
    <vehicle id="165" depart="16.50">
        <route edges="15:14 14:2 2:1 1:0 0:10 10:11"/>
    </vehicle>
    <vehicle id="166" depart="16.60">
        <route edges="16:3 3:2 2:1 1:0 0:10 10:11"/>
    </vehicle>
    <vehicle id="167" depart="16.70">
        <route edges="14:2"/>
    </vehicle>
    <vehicle id="168" depart="16.80">
        <route edges="17:16 16:3 3:2 2:14"/>
    </vehicle>
    <vehicle id="169" depart="16.90">
        <route edges="10:0 0:1 1:2"/>
    </vehicle>
    <vehicle id="172" depart="17.20">
        <route edges="6:4 4:0 0:1 1:2 2:14 14:15"/>
    </vehicle>
    <vehicle id="174" depart="17.40">
        <route edges="11:10 10:0 0:1 1:2 2:14"/>
    </vehicle>
    <vehicle id="176" depart="17.60">
        <route edges="7:5 5:3 3:18"/>
    </vehicle>
    <vehicle id="177" depart="17.70">
        <route edges="2:3 3:16"/>
    </vehicle>
    <vehicle id="178" depart="17.80">
        <route edges="6:4 4:0 0:1 1:2 2:3 3:18 18:19"/>
    </vehicle>
    <vehicle id="179" depart="17.90">
        <route edges="10:0 0:1 1:2 2:3 3:16 16:17"/>
    </vehicle>
    <vehicle id="180" depart="18.00">
        <route edges="13:12 12:1"/>
    </vehicle>
    <vehicle id="186" depart="18.60">
        <route edges="4:0 0:1 1:2 2:14 14:15"/>
    </vehicle>
    <vehicle id="187" depart="18.70">
        <route edges="9:8 8:0 0:1 1:2 2:3 3:5 5:7"/>
    </vehicle>
    <vehicle id="188" depart="18.80">
        <route edges="7:5 5:3 3:2 2:14"/>
    </vehicle>
    <vehicle id="190" depart="19.00">
        <route edges="7:5 5:3 3:16"/>
    </vehicle>
    <vehicle id="194" depart="19.40">
        <route edges="15:14 14:2 2:1"/>
    </vehicle>
    <vehicle id="196" depart="19.60">
        <route edges="6:4 4:0"/>
    </vehicle>
    <vehicle id="197" depart="19.70">
        <route edges="15:14 14:2 2:3 3:16 16:17"/>
    </vehicle>
    <vehicle id="198" depart="19.80">
        <route edges="3:5 5:7"/>
    </vehicle>
    <vehicle id="200" depart="20.00">
        <route edges="9:8 8:0 0:4 4:6"/>
    </vehicle>
    <vehicle id="201" depart="20.10">
        <route edges="3:5 5:7"/>
    </vehicle>
    <vehicle id="202" depart="20.20">
        <route edges="15:14 14:2 2:3 3:16 16:17"/>
    </vehicle>
    <vehicle id="203" depart="20.30">
        <route edges="8:0 0:1"/>
    </vehicle>
    <vehicle id="206" depart="20.60">
        <route edges="17:16 16:3 3:2 2:1 1:0 0:4 4:6"/>
    </vehicle>
    <vehicle id="207" depart="20.70">
        <route edges="4:0 0:1 1:12 12:13"/>
    </vehicle>
    <vehicle id="210" depart="21.00">
        <route edges="6:4 4:0 0:1 1:12 12:13"/>
    </vehicle>
    <vehicle id="211" depart="21.10">
        <route edges="4:0 0:1 1:2 2:14 14:15"/>
    </vehicle>
    <vehicle id="212" depart="21.20">
        <route edges="6:4 4:0 0:1 1:2 2:14"/>
    </vehicle>
    <vehicle id="213" depart="21.30">
        <route edges="13:12 12:1 1:2 2:14 14:15"/>
    </vehicle>
    <vehicle id="214" depart="21.40">
        <route edges="9:8 8:0 0:4 4:6"/>
    </vehicle>
    <vehicle id="216" depart="21.60">
        <route edges="2:1 1:0"/>
    </vehicle>
    <vehicle id="217" depart="21.70">
        <route edges="17:16 16:3 3:5 5:7"/>
    </vehicle>
    <vehicle id="218" depart="21.80">
        <route edges="11:10 10:0 0:4 4:6"/>
    </vehicle>
    <vehicle id="222" depart="22.20">
        <route edges="2:1 1:0 0:4 4:6"/>
    </vehicle>
    <vehicle id="228" depart="22.80">
        <route edges="6:4 4:0 0:1 1:2 2:3 3:5 5:7"/>
    </vehicle>
    <vehicle id="230" depart="23.00">
        <route edges="6:4 4:0 0:1 1:2 2:3 3:5"/>
    </vehicle>
    <vehicle id="231" depart="23.10">
        <route edges="17:16 16:3 3:5 5:7"/>
    </vehicle>
    <vehicle id="233" depart="23.30">
        <route edges="11:10 10:0 0:1 1:2 2:3 3:16 16:17"/>
    </vehicle>
    <vehicle id="234" depart="23.40">
        <route edges="1:2 2:3 3:5 5:7"/>
    </vehicle>
    <vehicle id="237" depart="23.70">
        <route edges="7:5 5:3 3:16 16:17"/>
    </vehicle>
    <vehicle id="239" depart="23.90">
        <route edges="7:5 5:3 3:2 2:1 1:0 0:4 4:6"/>
    </vehicle>
    <vehicle id="243" depart="24.30">
        <route edges="6:4 4:0 0:1 1:2 2:3 3:16 16:17"/>
    </vehicle>
    <vehicle id="244" depart="24.40">
        <route edges="11:10 10:0 0:1 1:2 2:3 3:16 16:17"/>
    </vehicle>
    <vehicle id="248" depart="24.80">
        <route edges="13:12 12:1 1:0 0:10"/>
    </vehicle>
    <vehicle id="249" depart="24.90">
        <route edges="1:12"/>
    </vehicle>
    <vehicle id="251" depart="25.10">
        <route edges="1:0 0:4"/>
    </vehicle>
    <vehicle id="254" depart="25.40">
        <route edges="15:14 14:2 2:1 1:12 12:13"/>
    </vehicle>
    <vehicle id="255" depart="25.50">
        <route edges="9:8 8:0 0:1 1:2 2:14 14:15"/>
    </vehicle>
    <vehicle id="257" depart="25.70">
        <route edges="13:12 12:1 1:0 0:10 10:11"/>
    </vehicle>
    <vehicle id="259" depart="25.90">
        <route edges="2:1 1:0"/>
    </vehicle>
    <vehicle id="261" depart="26.10">
        <route edges="9:8 8:0 0:4 4:6"/>
    </vehicle>
    <vehicle id="262" depart="26.20">
        <route edges="19:18 18:3 3:2 2:1"/>
    </vehicle>
    <vehicle id="263" depart="26.30">
        <route edges="1:2 2:14 14:15"/>
    </vehicle>
    <vehicle id="265" depart="26.50">
        <route edges="3:5 5:7"/>
    </vehicle>
    <vehicle id="266" depart="26.60">
        <route edges="6:4 4:0 0:1 1:2 2:3 3:5 5:7"/>
    </vehicle>
    <vehicle id="269" depart="26.90">
        <route edges="19:18 18:3 3:16 16:17"/>
    </vehicle>
    <vehicle id="270" depart="27.00">
        <route edges="13:12 12:1 1:0 0:4"/>
    </vehicle>
    <vehicle id="271" depart="27.10">
        <route edges="0:4 4:6"/>
    </vehicle>
    <vehicle id="275" depart="27.50">
        <route edges="5:3 3:18 18:19"/>
    </vehicle>
    <vehicle id="276" depart="27.60">
        <route edges="5:3 3:2 2:1 1:0 0:10"/>
    </vehicle>
    <vehicle id="280" depart="28.00">
        <route edges="6:4 4:0 0:1 1:12"/>
    </vehicle>
    <vehicle id="281" depart="28.10">
        <route edges="7:5 5:3 3:2"/>
    </vehicle>
    <vehicle id="282" depart="28.20">
        <route edges="12:1 1:0 0:4"/>
    </vehicle>
    <vehicle id="285" depart="28.50">
        <route edges="7:5 5:3 3:2 2:1 1:0 0:4"/>
    </vehicle>
    <vehicle id="288" depart="28.80">
        <route edges="7:5 5:3 3:2 2:1 1:12 12:13"/>
    </vehicle>
    <vehicle id="289" depart="28.90">
        <route edges="18:3 3:2 2:1 1:0 0:4"/>
    </vehicle>
    <vehicle id="290" depart="29.00">
        <route edges="8:0 0:1 1:2 2:3 3:18 18:19"/>
    </vehicle>
    <vehicle id="291" depart="29.10">
        <route edges="8:0 0:4 4:6"/>
    </vehicle>
    <vehicle id="292" depart="29.20">
        <route edges="19:18 18:3 3:2 2:1 1:0 0:8 8:9"/>
    </vehicle>
    <vehicle id="295" depart="29.50">
        <route edges="13:12 12:1 1:2 2:3 3:16 16:17"/>
    </vehicle>
    <vehicle id="296" depart="29.60">
        <route edges="13:12 12:1 1:0 0:4 4:6"/>
    </vehicle>
    <vehicle id="297" depart="29.70">
        <route edges="17:16 16:3 3:2 2:1 1:12"/>
    </vehicle>
    <vehicle id="298" depart="29.80">
        <route edges="18:3 3:5 5:7"/>
    </vehicle>
    <vehicle id="299" depart="29.90">
        <route edges="16:3 3:2 2:1 1:0 0:4"/>
    </vehicle>
    <vehicle id="300" depart="30.00">
        <route edges="4:0 0:1 1:12 12:13"/>
    </vehicle>
    <vehicle id="301" depart="30.10">
        <route edges="8:0 0:4"/>
    </vehicle>
    <vehicle id="303" depart="30.30">
        <route edges="0:4 4:6"/>
    </vehicle>
    <vehicle id="305" depart="30.50">
        <route edges="6:4 4:0 0:1 1:2 2:14 14:15"/>
    </vehicle>
    <vehicle id="307" depart="30.70">
        <route edges="9:8 8:0 0:1 1:2 2:3 3:5 5:7"/>
    </vehicle>
    <vehicle id="308" depart="30.80">
        <route edges="18:3 3:2 2:1 1:0 0:8 8:9"/>
    </vehicle>
    <vehicle id="309" depart="30.90">
        <route edges="10:0 0:8 8:9"/>
    </vehicle>
    <vehicle id="312" depart="31.20">
        <route edges="2:3 3:5 5:7"/>
    </vehicle>
    <vehicle id="313" depart="31.30">
        <route edges="7:5 5:3 3:2 2:1 1:0 0:10"/>
    </vehicle>
    <vehicle id="315" depart="31.50">
        <route edges="15:14 14:2 2:1 1:0 0:8 8:9"/>
    </vehicle>
    <vehicle id="316" depart="31.60">
        <route edges="19:18 18:3 3:2 2:1 1:12 12:13"/>
    </vehicle>
    <vehicle id="317" depart="31.70">
        <route edges="12:1 1:2 2:3 3:16"/>
    </vehicle>
    <vehicle id="320" depart="32.00">
        <route edges="7:5 5:3 3:2 2:1 1:0"/>
    </vehicle>
    <vehicle id="323" depart="32.30">
        <route edges="19:18 18:3 3:2 2:1 1:0 0:4 4:6"/>
    </vehicle>
    <vehicle id="325" depart="32.50">
        <route edges="18:3 3:5"/>
    </vehicle>
    <vehicle id="326" depart="32.60">
        <route edges="2:1 1:0 0:4 4:6"/>
    </vehicle>
    <vehicle id="327" depart="32.70">
        <route edges="16:3 3:5"/>
    </vehicle>
    <vehicle id="329" depart="32.90">
        <route edges="9:8 8:0"/>
    </vehicle>
    <vehicle id="331" depart="33.10">
        <route edges="17:16 16:3 3:2 2:1 1:0 0:4 4:6"/>
    </vehicle>
    <vehicle id="333" depart="33.30">
        <route edges="2:1 1:0 0:10 10:11"/>
    </vehicle>
    <vehicle id="334" depart="33.40">
        <route edges="6:4 4:0 0:1 1:2 2:14 14:15"/>
    </vehicle>
    <vehicle id="336" depart="33.60">
        <route edges="3:5 5:7"/>
    </vehicle>
    <vehicle id="337" depart="33.70">
        <route edges="15:14 14:2 2:1 1:0 0:10 10:11"/>
    </vehicle>
    <vehicle id="338" depart="33.80">
        <route edges="17:16 16:3 3:2 2:1 1:0 0:10 10:11"/>
    </vehicle>
    <vehicle id="340" depart="34.00">
        <route edges="13:12 12:1 1:2 2:14 14:15"/>
    </vehicle>
    <vehicle id="341" depart="34.10">
        <route edges="6:4 4:0 0:10 10:11"/>
    </vehicle>
    <vehicle id="345" depart="34.50">
        <route edges="6:4 4:0 0:1 1:2 2:3 3:5 5:7"/>
    </vehicle>
    <vehicle id="348" depart="34.80">
        <route edges="8:0 0:1 1:2 2:3 3:5"/>
    </vehicle>
    <vehicle id="349" depart="34.90">
        <route edges="15:14 14:2 2:3 3:16 16:17"/>
    </vehicle>
    <vehicle id="350" depart="35.00">
        <route edges="17:16 16:3 3:2 2:1 1:12 12:13"/>
    </vehicle>
    <vehicle id="351" depart="35.10">
        <route edges="13:12 12:1 1:2 2:3"/>
    </vehicle>
    <vehicle id="353" depart="35.30">
        <route edges="6:4 4:0 0:1 1:2 2:3 3:5 5:7"/>
    </vehicle>
    <vehicle id="355" depart="35.50">
        <route edges="6:4 4:0 0:1 1:2 2:3 3:5 5:7"/>
    </vehicle>
    <vehicle id="360" depart="36.00">
        <route edges="15:14 14:2 2:1 1:12"/>
    </vehicle>
    <vehicle id="361" depart="36.10">
        <route edges="16:3 3:2 2:1 1:12 12:13"/>
    </vehicle>
    <vehicle id="362" depart="36.20">
        <route edges="11:10 10:0 0:1 1:2 2:3 3:5 5:7"/>
    </vehicle>
    <vehicle id="367" depart="36.70">
        <route edges="3:2 2:1 1:0 0:4 4:6"/>
    </vehicle>
    <vehicle id="369" depart="36.90">
        <route edges="7:5 5:3 3:2 2:1 1:12 12:13"/>
    </vehicle>
    <vehicle id="373" depart="37.30">
        <route edges="3:2 2:1 1:0 0:4 4:6"/>
    </vehicle>
    <vehicle id="376" depart="37.60">
        <route edges="1:0 0:8 8:9"/>
    </vehicle>
    <vehicle id="377" depart="37.70">
        <route edges="18:3 3:2 2:1 1:0 0:4 4:6"/>
    </vehicle>
    <vehicle id="379" depart="37.90">
        <route edges="19:18 18:3 3:2 2:14"/>
    </vehicle>
    <vehicle id="381" depart="38.10">
        <route edges="4:0"/>
    </vehicle>
    <vehicle id="388" depart="38.80">
        <route edges="12:1 1:2 2:14 14:15"/>
    </vehicle>
    <vehicle id="390" depart="39.00">
        <route edges="6:4 4:0 0:1 1:2 2:3 3:5 5:7"/>
    </vehicle>
    <vehicle id="391" depart="39.10">
        <route edges="19:18 18:3 3:2 2:1 1:0 0:4 4:6"/>
    </vehicle>
    <vehicle id="392" depart="39.20">
        <route edges="7:5 5:3 3:2 2:1 1:0 0:4"/>
    </vehicle>
    <vehicle id="394" depart="39.40">
        <route edges="9:8 8:0 0:1 1:2 2:3 3:5 5:7"/>
    </vehicle>
    <vehicle id="395" depart="39.50">
        <route edges="1:0 0:4 4:6"/>
    </vehicle>
    <vehicle id="396" depart="39.60">
        <route edges="3:2 2:14"/>
    </vehicle>
    <vehicle id="397" depart="39.70">
        <route edges="17:16 16:3 3:5 5:7"/>
    </vehicle>
    <vehicle id="398" depart="39.80">
        <route edges="17:16 16:3 3:5 5:7"/>
    </vehicle>
    <vehicle id="400" depart="40.00">
        <route edges="6:4 4:0 0:1 1:2 2:3 3:5 5:7"/>
    </vehicle>
    <vehicle id="401" depart="40.10">
        <route edges="18:3 3:2"/>
    </vehicle>
    <vehicle id="402" depart="40.20">
        <route edges="7:5 5:3 3:2 2:1 1:0 0:8 8:9"/>
    </vehicle>
    <vehicle id="403" depart="40.30">
        <route edges="13:12 12:1 1:2 2:3 3:18"/>
    </vehicle>
    <vehicle id="404" depart="40.40">
        <route edges="11:10 10:0 0:1 1:2 2:3 3:5 5:7"/>
    </vehicle>
    <vehicle id="405" depart="40.50">
        <route edges="1:0 0:8 8:9"/>
    </vehicle>
    <vehicle id="406" depart="40.60">
        <route edges="3:2 2:1 1:0 0:8 8:9"/>
    </vehicle>
    <vehicle id="407" depart="40.70">
        <route edges="3:2 2:1"/>
    </vehicle>
    <vehicle id="408" depart="40.80">
        <route edges="13:12 12:1 1:2 2:14"/>
    </vehicle>
    <vehicle id="409" depart="40.90">
        <route edges="18:3 3:2 2:1 1:0 0:8 8:9"/>
    </vehicle>
    <vehicle id="411" depart="41.10">
        <route edges="4:0 0:1 1:2 2:3 3:5 5:7"/>
    </vehicle>
    <vehicle id="412" depart="41.20">
        <route edges="2:1 1:0 0:8 8:9"/>
    </vehicle>
    <vehicle id="413" depart="41.30">
        <route edges="11:10 10:0 0:1 1:2 2:3"/>
    </vehicle>
    <vehicle id="414" depart="41.40">
        <route edges="5:3 3:2 2:1 1:0 0:4 4:6"/>
    </vehicle>
    <vehicle id="417" depart="41.70">
        <route edges="6:4 4:0 0:1 1:2 2:3"/>
    </vehicle>
    <vehicle id="419" depart="41.90">
        <route edges="11:10 10:0 0:1 1:2"/>
    </vehicle>
    <vehicle id="421" depart="42.10">
        <route edges="19:18 18:3 3:2 2:14"/>
    </vehicle>
    <vehicle id="423" depart="42.30">
        <route edges="19:18 18:3 3:2 2:1 1:12"/>
    </vehicle>
    <vehicle id="424" depart="42.40">
        <route edges="15:14 14:2 2:3 3:16 16:17"/>
    </vehicle>
    <vehicle id="429" depart="42.90">
        <route edges="2:1 1:0 0:4 4:6"/>
    </vehicle>
    <vehicle id="430" depart="43.00">
        <route edges="19:18 18:3 3:2 2:1 1:0 0:4 4:6"/>
    </vehicle>
    <vehicle id="432" depart="43.20">
        <route edges="6:4 4:0 0:1 1:2"/>
    </vehicle>
    <vehicle id="434" depart="43.40">
        <route edges="9:8 8:0 0:10"/>
    </vehicle>
    <vehicle id="437" depart="43.70">
        <route edges="19:18 18:3 3:2"/>
    </vehicle>
    <vehicle id="438" depart="43.80">
        <route edges="4:0 0:1 1:2 2:3 3:16 16:17"/>
    </vehicle>
    <vehicle id="439" depart="43.90">
        <route edges="6:4 4:0 0:1 1:2 2:3 3:5 5:7"/>
    </vehicle>
    <vehicle id="440" depart="44.00">
        <route edges="15:14 14:2 2:3"/>
    </vehicle>
    <vehicle id="444" depart="44.40">
        <route edges="0:1"/>
    </vehicle>
    <vehicle id="446" depart="44.60">
        <route edges="2:14 14:15"/>
    </vehicle>
    <vehicle id="447" depart="44.70">
        <route edges="6:4 4:0 0:8"/>
    </vehicle>
    <vehicle id="451" depart="45.10">
        <route edges="0:1 1:2 2:3 3:18 18:19"/>
    </vehicle>
    <vehicle id="452" depart="45.20">
        <route edges="6:4 4:0 0:1 1:2 2:3 3:18 18:19"/>
    </vehicle>
    <vehicle id="454" depart="45.40">
        <route edges="19:18 18:3 3:5 5:7"/>
    </vehicle>
    <vehicle id="455" depart="45.50">
        <route edges="2:3 3:16 16:17"/>
    </vehicle>
    <vehicle id="456" depart="45.60">
        <route edges="3:2 2:1 1:0 0:8 8:9"/>
    </vehicle>
    <vehicle id="458" depart="45.80">
        <route edges="10:0 0:8"/>
    </vehicle>
    <vehicle id="459" depart="45.90">
        <route edges="10:0 0:1"/>
    </vehicle>
    <vehicle id="460" depart="46.00">
        <route edges="17:16 16:3 3:2 2:1"/>
    </vehicle>
    <vehicle id="465" depart="46.50">
        <route edges="0:1"/>
    </vehicle>
    <vehicle id="466" depart="46.60">
        <route edges="2:3 3:5 5:7"/>
    </vehicle>
    <vehicle id="467" depart="46.70">
        <route edges="19:18 18:3 3:5 5:7"/>
    </vehicle>
    <vehicle id="469" depart="46.90">
        <route edges="10:0 0:1 1:12 12:13"/>
    </vehicle>
    <vehicle id="475" depart="47.50">
        <route edges="0:4"/>
    </vehicle>
    <vehicle id="476" depart="47.60">
        <route edges="2:3 3:5 5:7"/>
    </vehicle>
    <vehicle id="478" depart="47.80">
        <route edges="15:14 14:2 2:1 1:0 0:10 10:11"/>
    </vehicle>
    <vehicle id="479" depart="47.90">
        <route edges="19:18 18:3 3:2 2:1 1:0 0:4 4:6"/>
    </vehicle>
    <vehicle id="481" depart="48.10">
        <route edges="6:4 4:0 0:1 1:12"/>
    </vehicle>
    <vehicle id="482" depart="48.20">
        <route edges="6:4 4:0 0:1 1:2 2:3 3:5"/>
    </vehicle>
    <vehicle id="485" depart="48.50">
        <route edges="5:3 3:2 2:1 1:0 0:4 4:6"/>
    </vehicle>
    <vehicle id="486" depart="48.60">
        <route edges="11:10 10:0 0:1 1:12 12:13"/>
    </vehicle>
    <vehicle id="487" depart="48.70">
        <route edges="15:14 14:2 2:1 1:0 0:4 4:6"/>
    </vehicle>
    <vehicle id="491" depart="49.10">
        <route edges="7:5 5:3 3:2 2:1 1:12 12:13"/>
    </vehicle>
    <vehicle id="493" depart="49.30">
        <route edges="17:16 16:3 3:2 2:14 14:15"/>
    </vehicle>
    <vehicle id="496" depart="49.60">
        <route edges="11:10 10:0 0:4"/>
    </vehicle>
    <vehicle id="498" depart="49.80">
        <route edges="17:16 16:3 3:2 2:1 1:0 0:4 4:6"/>
    </vehicle>
    <vehicle id="499" depart="49.90">
        <route edges="6:4 4:0 0:1 1:12 12:13"/>
    </vehicle>
    <vehicle id="500" depart="50.00">
        <route edges="17:16 16:3 3:2 2:14 14:15"/>
    </vehicle>
    <vehicle id="501" depart="50.10">
        <route edges="2:3"/>
    </vehicle>
    <vehicle id="502" depart="50.20">
        <route edges="5:3 3:2 2:1 1:0 0:4 4:6"/>
    </vehicle>
    <vehicle id="503" depart="50.30">
        <route edges="9:8 8:0 0:10 10:11"/>
    </vehicle>
    <vehicle id="505" depart="50.50">
        <route edges="11:10 10:0 0:4 4:6"/>
    </vehicle>
    <vehicle id="508" depart="50.80">
        <route edges="6:4 4:0 0:1 1:2 2:3"/>
    </vehicle>
    <vehicle id="510" depart="51.00">
        <route edges="19:18 18:3 3:2"/>
    </vehicle>
    <vehicle id="511" depart="51.10">
        <route edges="15:14 14:2 2:3 3:18"/>
    </vehicle>
    <vehicle id="518" depart="51.80">
        <route edges="19:18 18:3 3:2 2:1 1:12 12:13"/>
    </vehicle>
    <vehicle id="519" depart="51.90">
        <route edges="7:5 5:3 3:2 2:14"/>
    </vehicle>
    <vehicle id="521" depart="52.10">
        <route edges="6:4 4:0 0:1 1:2 2:3 3:18 18:19"/>
    </vehicle>
    <vehicle id="522" depart="52.20">
        <route edges="5:3 3:2 2:1"/>
    </vehicle>
    <vehicle id="523" depart="52.30">
        <route edges="7:5 5:3 3:2 2:1 1:0 0:10 10:11"/>
    </vehicle>
    <vehicle id="526" depart="52.60">
        <route edges="19:18 18:3 3:16 16:17"/>
    </vehicle>
    <vehicle id="528" depart="52.80">
        <route edges="7:5 5:3 3:18 18:19"/>
    </vehicle>
    <vehicle id="529" depart="52.90">
        <route edges="7:5 5:3 3:2 2:1 1:0 0:10 10:11"/>
    </vehicle>
    <vehicle id="530" depart="53.00">
        <route edges="6:4 4:0 0:1 1:2 2:3 3:5"/>
    </vehicle>
    <vehicle id="531" depart="53.10">
        <route edges="7:5 5:3 3:2 2:1 1:0 0:8 8:9"/>
    </vehicle>
    <vehicle id="533" depart="53.30">
        <route edges="5:3 3:2 2:1 1:0 0:10 10:11"/>
    </vehicle>
    <vehicle id="537" depart="53.70">
        <route edges="11:10 10:0 0:1 1:12 12:13"/>
    </vehicle>
    <vehicle id="538" depart="53.80">
        <route edges="13:12 12:1 1:0 0:10 10:11"/>
    </vehicle>
    <vehicle id="539" depart="53.90">
        <route edges="11:10 10:0"/>
    </vehicle>
    <vehicle id="540" depart="54.00">
        <route edges="7:5 5:3 3:2 2:1 1:0 0:4"/>
    </vehicle>
    <vehicle id="541" depart="54.10">
        <route edges="13:12 12:1 1:0"/>
    </vehicle>
    <vehicle id="544" depart="54.40">
        <route edges="16:3 3:2 2:14 14:15"/>
    </vehicle>
    <vehicle id="545" depart="54.50">
        <route edges="15:14 14:2 2:3 3:16 16:17"/>
    </vehicle>