<additional>
	<e1Detector file="e1output.xml" freq="30" friendlyPos="x" id="e1det_a1:b1_0" lane="a1:b1_0" length="115.15" pos="110.15"/>
	<e1Detector file="e1output.xml" freq="30" friendlyPos="x" id="e1det_b0:b1_0" lane="b0:b1_0" length="115.15" pos="110.15"/>
	<e1Detector file="e1output.xml" freq="30" friendlyPos="x" id="e1det_b2:b1_0" lane="b2:b1_0" length="110.4" pos="105.4"/>
	<e1Detector file="e1output.xml" freq="30" friendlyPos="x" id="e1det_c1:b1_0" lane="c1:b1_0" length="110.4" pos="105.4"/>
	<e1Detector file="e1output.xml" freq="30" friendlyPos="x" id="e1det_a2:b2_0" lane="a2:b2_0" length="115.15" pos="110.15"/>
	<e1Detector file="e1output.xml" freq="30" friendlyPos="x" id="e1det_b1:b2_0" lane="b1:b2_0" length="110.4" pos="105.4"/>
	<e1Detector file="e1output.xml" freq="30" friendlyPos="x" id="e1det_b3:b2_0" lane="b3:b2_0" length="110.4" pos="105.4"/>
	<e1Detector file="e1output.xml" freq="30" friendlyPos="x" id="e1det_c2:b2_0" lane="c2:b2_0" length="110.4" pos="105.4"/>
	<e1Detector file="e1output.xml" freq="30" friendlyPos="x" id="e1det_a3:b3_0" lane="a3:b3_0" length="115.15" pos="110.15"/>
	<e1Detector file="e1output.xml" freq="30" friendlyPos="x" id="e1det_b2:b3_0" lane="b2:b3_0" length="110.4" pos="105.4"/>
	<e1Detector file="e1output.xml" freq="30" friendlyPos="x" id="e1det_b4:b3_0" lane="b4:b3_0" length="115.15" pos="110.15"/>
	<e1Detector file="e1output.xml" freq="30" friendlyPos="x" id="e1det_c3:b3_0" lane="c3:b3_0" length="110.4" pos="105.4"/>
	<e1Detector file="e1output.xml" freq="30" friendlyPos="x" id="e1det_b1:c1_0" lane="b1:c1_0" length="110.4" pos="105.4"/>
	<e1Detector file="e1output.xml" freq="30" friendlyPos="x" id="e1det_c0:c1_0" lane="c0:c1_0" length="115.15" pos="110.15"/>
	<e1Detector file="e1output.xml" freq="30" friendlyPos="x" id="e1det_c2:c1_0" lane="c2:c1_0" length="110.4" pos="105.4"/>
	<e1Detector file="e1output.xml" freq="30" friendlyPos="x" id="e1det_d1:c1_0" lane="d1:c1_0" length="110.4" pos="105.4"/>
	<e1Detector file="e1output.xml" freq="30" friendlyPos="x" id="e1det_b2:c2_0" lane="b2:c2_0" length="110.4" pos="105.4"/>
	<e1Detector file="e1output.xml" freq="30" friendlyPos="x" id="e1det_c1:c2_0" lane="c1:c2_0" length="110.4" pos="105.4"/>
	<e1Detector file="e1output.xml" freq="30" friendlyPos="x" id="e1det_c3:c2_0" lane="c3:c2_0" length="110.4" pos="105.4"/>
	<e1Detector file="e1output.xml" freq="30" friendlyPos="x" id="e1det_d2:c2_0" lane="d2:c2_0" length="110.4" pos="105.4"/>
	<e1Detector file="e1output.xml" freq="30" friendlyPos="x" id="e1det_b3:c3_0" lane="b3:c3_0" length="110.4" pos="105.4"/>
	<e1Detector file="e1output.xml" freq="30" friendlyPos="x" id="e1det_c2:c3_0" lane="c2:c3_0" length="110.4" pos="105.4"/>
	<e1Detector file="e1output.xml" freq="30" friendlyPos="x" id="e1det_c4:c3_0" lane="c4:c3_0" length="115.15" pos="110.15"/>
	<e1Detector file="e1output.xml" freq="30" friendlyPos="x" id="e1det_d3:c3_0" lane="d3:c3_0" length="110.4" pos="105.4"/>
	<e1Detector file="e1output.xml" freq="30" friendlyPos="x" id="e1det_c1:d1_0" lane="c1:d1_0" length="110.4" pos="105.4"/>
	<e1Detector file="e1output.xml" freq="30" friendlyPos="x" id="e1det_d0:d1_0" lane="d0:d1_0" length="115.15" pos="110.15"/>
	<e1Detector file="e1output.xml" freq="30" friendlyPos="x" id="e1det_d2:d1_0" lane="d2:d1_0" length="110.4" pos="105.4"/>
	<e1Detector file="e1output.xml" freq="30" friendlyPos="x" id="e1det_e1:d1_0" lane="e1:d1_0" length="115.15" pos="110.15"/>
	<e1Detector file="e1output.xml" freq="30" friendlyPos="x" id="e1det_c2:d2_0" lane="c2:d2_0" length="110.4" pos="105.4"/>
	<e1Detector file="e1output.xml" freq="30" friendlyPos="x" id="e1det_d1:d2_0" lane="d1:d2_0" length="110.4" pos="105.4"/>
	<e1Detector file="e1output.xml" freq="30" friendlyPos="x" id="e1det_d3:d2_0" lane="d3:d2_0" length="110.4" pos="105.4"/>
	<e1Detector file="e1output.xml" freq="30" friendlyPos="x" id="e1det_e2:d2_0" lane="e2:d2_0" length="115.15" pos="110.15"/>
	<e1Detector file="e1output.xml" freq="30" friendlyPos="x" id="e1det_c3:d3_0" lane="c3:d3_0" length="110.4" pos="105.4"/>
	<e1Detector file="e1output.xml" freq="30" friendlyPos="x" id="e1det_d2:d3_0" lane="d2:d3_0" length="110.4" pos="105.4"/>
	<e1Detector file="e1output.xml" freq="30" friendlyPos="x" id="e1det_d4:d3_0" lane="d4:d3_0" length="115.15" pos="110.15"/>
	<e1Detector file="e1output.xml" freq="30" friendlyPos="x" id="e1det_e3:ed_0" lane="e3:ed_0" length="115.15" pos="110.15"/>
</additional>
