<?xml version="1.0" encoding="UTF-8"?>

<!-- generated on Thu Feb 13 12:39:26 2014 by SUMO duarouter Version 0.18.0
<?xml version="1.0" encoding="UTF-8"?>

<configuration xmlns:xsi="http://www.w3.org/2001/XMLSchema-instance" xsi:noNamespaceSchemaLocation="http://sumo.sf.net/xsd/duarouterConfiguration.xsd">

    <input>
        <net-file value="simpleT.net.xml"/>
        <trip-files value="experimentos/simpleT.p0.7.1.trips.xml"/>
    </input>

    <output>
        <output-file value="experimentos/simpleT.p0.7.1.rou.xml"/>
    </output>

    <processing>
        <ignore-errors value="true"/>
    </processing>

    <random_number>
        <random value="true"/>
    </random_number>

</configuration>
-->

<routes xmlns:xsi="http://www.w3.org/2001/XMLSchema-instance" xsi:noNamespaceSchemaLocation="http://sumo.sf.net/xsd/routes_file.xsd">
    <vehicle id="0" depart="0.00">
        <route edges="2:0 0:1"/>
    </vehicle>
    <vehicle id="2" depart="1.40">
        <route edges="7:3 3:1 1:0"/>
    </vehicle>
    <vehicle id="4" depart="2.80">
        <route edges="1:3 3:7"/>
    </vehicle>
    <vehicle id="5" depart="3.50">
        <route edges="0:1 1:5 5:6"/>
    </vehicle>
    <vehicle id="6" depart="4.20">
        <route edges="1:3 3:7"/>
    </vehicle>
    <vehicle id="8" depart="5.60">
        <route edges="2:0 0:1 1:3"/>
    </vehicle>
    <vehicle id="10" depart="7.00">
        <route edges="3:1"/>
    </vehicle>
    <vehicle id="13" depart="9.10">
        <route edges="7:3 3:1"/>
    </vehicle>
    <vehicle id="14" depart="9.80">
        <route edges="6:5 5:1"/>
    </vehicle>
    <vehicle id="15" depart="10.50">
        <route edges="7:3 3:1 1:0"/>
    </vehicle>
    <vehicle id="19" depart="13.30">
        <route edges="2:0 0:1 1:5 5:6"/>
    </vehicle>
    <vehicle id="21" depart="14.70">
        <route edges="7:3 3:1 1:0 0:2"/>
    </vehicle>
    <vehicle id="22" depart="15.40">
        <route edges="7:3 3:1 1:0 0:2"/>
    </vehicle>
    <vehicle id="24" depart="16.80">
        <route edges="2:0 0:1 1:3"/>
    </vehicle>
    <vehicle id="25" depart="17.50">
        <route edges="2:0 0:1 1:3 3:7"/>
    </vehicle>
    <vehicle id="26" depart="18.20">
        <route edges="2:0 0:1 1:3 3:7"/>
    </vehicle>
    <vehicle id="27" depart="18.90">
        <route edges="1:0 0:2"/>
    </vehicle>
    <vehicle id="28" depart="19.60">
        <route edges="3:1 1:5"/>
    </vehicle>
    <vehicle id="30" depart="21.00">
        <route edges="3:1 1:0 0:2"/>
    </vehicle>
    <vehicle id="33" depart="23.10">
        <route edges="3:1 1:0 0:2"/>
    </vehicle>
    <vehicle id="35" depart="24.50">
        <route edges="3:1 1:5 5:6"/>
    </vehicle>
    <vehicle id="36" depart="25.20">
        <route edges="5:1 1:3 3:7"/>
    </vehicle>
    <vehicle id="37" depart="25.90">
        <route edges="7:3 3:1 1:0"/>
    </vehicle>
    <vehicle id="38" depart="26.60">
        <route edges="7:3 3:1 1:0 0:2"/>
    </vehicle>
    <vehicle id="39" depart="27.30">
        <route edges="6:5 5:1 1:3 3:7"/>
    </vehicle>
    <vehicle id="41" depart="28.70">
        <route edges="5:1 1:3 3:7"/>
    </vehicle>
    <vehicle id="42" depart="29.40">
        <route edges="2:0 0:1"/>
    </vehicle>
    <vehicle id="43" depart="30.10">
        <route edges="2:0 0:1 1:3 3:7"/>
    </vehicle>
    <vehicle id="47" depart="32.90">
        <route edges="7:3 3:1 1:0 0:2"/>
    </vehicle>
    <vehicle id="48" depart="33.60">
        <route edges="7:3 3:1 1:0"/>
    </vehicle>
    <vehicle id="50" depart="35.00">
        <route edges="0:1 1:3 3:7"/>
    </vehicle>
    <vehicle id="51" depart="35.70">
        <route edges="0:1 1:3 3:7"/>
    </vehicle>
    <vehicle id="58" depart="40.60">
        <route edges="2:0 0:1 1:5 5:6"/>
    </vehicle>
    <vehicle id="59" depart="41.30">
        <route edges="5:1 1:3"/>
    </vehicle>
    <vehicle id="60" depart="42.00">
        <route edges="2:0 0:1 1:3 3:7"/>
    </vehicle>
    <vehicle id="61" depart="42.70">
        <route edges="7:3 3:1 1:5"/>
    </vehicle>
    <vehicle id="62" depart="43.40">
        <route edges="7:3 3:1 1:5"/>
    </vehicle>
    <vehicle id="63" depart="44.10">
        <route edges="7:3 3:1 1:0 0:2"/>
    </vehicle>
    <vehicle id="64" depart="44.80">
        <route edges="2:0 0:1 1:5"/>
    </vehicle>
    <vehicle id="68" depart="47.60">
        <route edges="1:3 3:7"/>
    </vehicle>
    <vehicle id="70" depart="49.00">
        <route edges="1:5 5:6"/>
    </vehicle>
    <vehicle id="73" depart="51.10">
        <route edges="2:0 0:1"/>
    </vehicle>
    <vehicle id="74" depart="51.80">
        <route edges="2:0 0:1 1:3 3:7"/>
    </vehicle>
    <vehicle id="75" depart="52.50">
        <route edges="2:0 0:1 1:5 5:6"/>
    </vehicle>
    <vehicle id="76" depart="53.20">
        <route edges="2:0 0:1 1:3"/>
    </vehicle>
    <vehicle id="80" depart="56.00">
        <route edges="0:1 1:3 3:7"/>
    </vehicle>
    <vehicle id="81" depart="56.70">
        <route edges="2:0 0:1 1:3 3:7"/>
    </vehicle>
    <vehicle id="82" depart="57.40">
        <route edges="1:5 5:6"/>
    </vehicle>
    <vehicle id="84" depart="58.80">
        <route edges="7:3 3:1 1:0 0:2"/>
    </vehicle>
    <vehicle id="86" depart="60.20">
        <route edges="3:1 1:5 5:6"/>
    </vehicle>
    <vehicle id="90" depart="63.00">
        <route edges="3:1 1:0 0:2"/>
    </vehicle>
    <vehicle id="92" depart="64.40">
        <route edges="7:3 3:1 1:0 0:2"/>
    </vehicle>
    <vehicle id="93" depart="65.10">
        <route edges="7:3 3:1 1:0"/>
    </vehicle>
    <vehicle id="94" depart="65.80">
        <route edges="2:0 0:1 1:3 3:7"/>
    </vehicle>
    <vehicle id="97" depart="67.90">
        <route edges="1:3"/>
    </vehicle>
    <vehicle id="98" depart="68.60">
        <route edges="1:0 0:2"/>
    </vehicle>
    <vehicle id="103" depart="72.10">
        <route edges="5:1 1:0 0:2"/>
    </vehicle>
    <vehicle id="104" depart="72.80">
        <route edges="1:3"/>
    </vehicle>
    <vehicle id="107" depart="74.90">
        <route edges="1:3 3:7"/>
    </vehicle>
    <vehicle id="108" depart="75.60">
        <route edges="6:5 5:1 1:0 0:2"/>
    </vehicle>
    <vehicle id="111" depart="77.70">
        <route edges="3:1 1:0 0:2"/>
    </vehicle>
    <vehicle id="112" depart="78.40">
        <route edges="6:5 5:1 1:3 3:7"/>
    </vehicle>
    <vehicle id="113" depart="79.10">
        <route edges="0:1 1:3 3:7"/>
    </vehicle>
    <vehicle id="114" depart="79.80">
        <route edges="7:3 3:1 1:5"/>
    </vehicle>
    <vehicle id="116" depart="81.20">
        <route edges="5:1 1:0 0:2"/>
    </vehicle>
    <vehicle id="118" depart="82.60">
        <route edges="7:3 3:1"/>
    </vehicle>
    <vehicle id="122" depart="85.40">
        <route edges="2:0 0:1 1:3 3:7"/>
    </vehicle>
    <vehicle id="124" depart="86.80">
        <route edges="5:1 1:3 3:7"/>
    </vehicle>
    <vehicle id="126" depart="88.20">
        <route edges="2:0 0:1 1:3"/>
    </vehicle>
    <vehicle id="128" depart="89.60">
        <route edges="6:5 5:1 1:0 0:2"/>
    </vehicle>
    <vehicle id="131" depart="91.70">
        <route edges="3:1 1:0"/>
    </vehicle>
    <vehicle id="135" depart="94.50">
        <route edges="3:1 1:0 0:2"/>
    </vehicle>
    <vehicle id="137" depart="95.90">
        <route edges="7:3 3:1 1:0"/>
    </vehicle>
    <vehicle id="138" depart="96.60">
        <route edges="2:0 0:1 1:3"/>
    </vehicle>
    <vehicle id="139" depart="97.30">
        <route edges="0:1 1:3 3:7"/>
    </vehicle>
    <vehicle id="140" depart="98.00">
        <route edges="2:0 0:1 1:3 3:7"/>
    </vehicle>
    <vehicle id="141" depart="98.70">
        <route edges="0:1 1:5 5:6"/>
    </vehicle>
    <vehicle id="148" depart="103.60">
        <route edges="5:1 1:0 0:2"/>
    </vehicle>
    <vehicle id="149" depart="104.30">
        <route edges="3:1"/>
    </vehicle>
    <vehicle id="151" depart="105.70">
        <route edges="7:3 3:1 1:0 0:2"/>
    </vehicle>
    <vehicle id="152" depart="106.40">
        <route edges="2:0 0:1 1:3 3:7"/>
    </vehicle>
    <vehicle id="153" depart="107.10">
        <route edges="0:1 1:3 3:7"/>
    </vehicle>
    <vehicle id="155" depart="108.50">
        <route edges="7:3 3:1 1:5 5:6"/>
    </vehicle>
    <vehicle id="157" depart="109.90">
        <route edges="0:1 1:5 5:6"/>
    </vehicle>
    <vehicle id="158" depart="110.60">
        <route edges="7:3 3:1"/>
    </vehicle>
    <vehicle id="162" depart="113.40">
        <route edges="2:0 0:1"/>
    </vehicle>
    <vehicle id="171" depart="119.70">
        <route edges="6:5 5:1 1:3"/>
    </vehicle>
    <vehicle id="172" depart="120.40">
        <route edges="1:3 3:7"/>
    </vehicle>
    <vehicle id="173" depart="121.10">
        <route edges="7:3 3:1 1:0 0:2"/>
    </vehicle>
    <vehicle id="174" depart="121.80">
        <route edges="2:0 0:1 1:3 3:7"/>
    </vehicle>
    <vehicle id="175" depart="122.50">
        <route edges="0:1 1:3 3:7"/>
    </vehicle>
    <vehicle id="177" depart="123.90">
        <route edges="2:0 0:1"/>
    </vehicle>
    <vehicle id="179" depart="125.30">
        <route edges="2:0 0:1"/>
    </vehicle>
    <vehicle id="181" depart="126.70">
        <route edges="2:0 0:1 1:3 3:7"/>
    </vehicle>
    <vehicle id="186" depart="130.20">
        <route edges="1:3 3:7"/>
    </vehicle>
    <vehicle id="187" depart="130.90">
        <route edges="1:0 0:2"/>
    </vehicle>
    <vehicle id="189" depart="132.30">
        <route edges="3:1 1:0 0:2"/>
    </vehicle>
    <vehicle id="190" depart="133.00">
        <route edges="1:3"/>
    </vehicle>
    <vehicle id="193" depart="135.10">
        <route edges="3:1 1:0 0:2"/>
    </vehicle>
    <vehicle id="195" depart="136.50">
        <route edges="2:0 0:1 1:3"/>
    </vehicle>
    <vehicle id="199" depart="139.30">
        <route edges="7:3 3:1 1:5"/>
    </vehicle>
    <vehicle id="207" depart="144.90">
        <route edges="0:1 1:3 3:7"/>
    </vehicle>
    <vehicle id="208" depart="145.60">
        <route edges="1:3"/>
    </vehicle>
    <vehicle id="213" depart="149.10">
        <route edges="2:0 0:1"/>
    </vehicle>
    <vehicle id="214" depart="149.80">
        <route edges="3:1 1:0 0:2"/>
    </vehicle>
    <vehicle id="216" depart="151.20">
        <route edges="2:0 0:1 1:3"/>
    </vehicle>
    <vehicle id="217" depart="151.90">
        <route edges="7:3 3:1 1:0 0:2"/>
    </vehicle>
    <vehicle id="218" depart="152.60">
        <route edges="3:1 1:0"/>
    </vehicle>
    <vehicle id="219" depart="153.30">
        <route edges="5:1 1:0 0:2"/>
    </vehicle>
    <vehicle id="221" depart="154.70">
        <route edges="3:1 1:0"/>
    </vehicle>
    <vehicle id="222" depart="155.40">
        <route edges="3:1 1:5 5:6"/>
    </vehicle>
    <vehicle id="225" depart="157.50">
        <route edges="0:1"/>
    </vehicle>
    <vehicle id="226" depart="158.20">
        <route edges="0:1 1:5"/>
    </vehicle>
    <vehicle id="228" depart="159.60">
        <route edges="3:1 1:0 0:2"/>
    </vehicle>
    <vehicle id="229" depart="160.30">
        <route edges="5:1 1:0 0:2"/>
    </vehicle>
    <vehicle id="230" depart="161.00">
        <route edges="1:3"/>
    </vehicle>
    <vehicle id="231" depart="161.70">
        <route edges="2:0 0:1 1:3"/>
    </vehicle>
    <vehicle id="233" depart="163.10">
        <route edges="2:0 0:1 1:5"/>
    </vehicle>
    <vehicle id="235" depart="164.50">
        <route edges="1:3 3:7"/>
    </vehicle>
    <vehicle id="240" depart="168.00">
        <route edges="1:3 3:7"/>
    </vehicle>
    <vehicle id="241" depart="168.70">
        <route edges="1:0 0:2"/>
    </vehicle>
    <vehicle id="242" depart="169.40">
        <route edges="5:1 1:0 0:2"/>
    </vehicle>
    <vehicle id="244" depart="170.80">
        <route edges="2:0 0:1 1:3"/>
    </vehicle>
    <vehicle id="247" depart="172.90">
        <route edges="6:5 5:1 1:3"/>
    </vehicle>
    <vehicle id="249" depart="174.30">
        <route edges="7:3 3:1 1:0"/>
    </vehicle>
    <vehicle id="252" depart="176.40">
        <route edges="2:0 0:1"/>
    </vehicle>
    <vehicle id="256" depart="179.20">
        <route edges="3:1 1:0 0:2"/>
    </vehicle>
    <vehicle id="257" depart="179.90">
        <route edges="3:1 1:0 0:2"/>
    </vehicle>
    <vehicle id="258" depart="180.60">
        <route edges="7:3 3:1 1:5 5:6"/>
    </vehicle>
    <vehicle id="259" depart="181.30">
        <route edges="3:1 1:0 0:2"/>
    </vehicle>
    <vehicle id="266" depart="186.20">
        <route edges="2:0 0:1"/>
    </vehicle>
    <vehicle id="268" depart="187.60">
        <route edges="2:0 0:1 1:3 3:7"/>
    </vehicle>
    <vehicle id="269" depart="188.30">
        <route edges="2:0 0:1 1:5"/>
    </vehicle>
    <vehicle id="271" depart="189.70">
        <route edges="2:0 0:1 1:5 5:6"/>
    </vehicle>
    <vehicle id="272" depart="190.40">
        <route edges="5:1 1:3 3:7"/>
    </vehicle>
    <vehicle id="274" depart="191.80">
        <route edges="3:1 1:0 0:2"/>
    </vehicle>
    <vehicle id="275" depart="192.50">
        <route edges="7:3 3:1 1:0 0:2"/>
    </vehicle>
    <vehicle id="277" depart="193.90">
        <route edges="0:1"/>
    </vehicle>
    <vehicle id="278" depart="194.60">
        <route edges="5:1 1:3"/>
    </vehicle>
    <vehicle id="282" depart="197.40">
        <route edges="3:1"/>
    </vehicle>
    <vehicle id="284" depart="198.80">
        <route edges="0:1 1:3 3:7"/>
    </vehicle>
    <vehicle id="288" depart="201.60">
        <route edges="2:0 0:1 1:3 3:7"/>
    </vehicle>
    <vehicle id="290" depart="203.00">
        <route edges="2:0 0:1"/>
    </vehicle>
    <vehicle id="293" depart="205.10">
        <route edges="6:5 5:1 1:0"/>
    </vehicle>
    <vehicle id="294" depart="205.80">
        <route edges="1:3 3:7"/>
    </vehicle>
    <vehicle id="295" depart="206.50">
        <route edges="3:1 1:0"/>
    </vehicle>
    <vehicle id="297" depart="207.90">
        <route edges="7:3 3:1 1:0 0:2"/>
    </vehicle>
    <vehicle id="300" depart="210.00">
        <route edges="2:0 0:1"/>
    </vehicle>
    <vehicle id="306" depart="214.20">
        <route edges="7:3 3:1 1:0"/>
    </vehicle>
    <vehicle id="308" depart="215.60">
        <route edges="6:5 5:1 1:0"/>
    </vehicle>
    <vehicle id="311" depart="217.70">
        <route edges="2:0 0:1 1:3 3:7"/>
    </vehicle>
    <vehicle id="313" depart="219.10">
        <route edges="1:3 3:7"/>
    </vehicle>
    <vehicle id="314" depart="219.80">
        <route edges="7:3 3:1 1:0 0:2"/>
    </vehicle>
    <vehicle id="315" depart="220.50">
        <route edges="6:5 5:1 1:0"/>
    </vehicle>
    <vehicle id="316" depart="221.20">
        <route edges="3:1 1:0 0:2"/>
    </vehicle>
    <vehicle id="317" depart="221.90">
        <route edges="1:0 0:2"/>
    </vehicle>
    <vehicle id="318" depart="222.60">
        <route edges="3:1 1:5"/>
    </vehicle>
    <vehicle id="322" depart="225.40">
        <route edges="6:5 5:1 1:3 3:7"/>
    </vehicle>
    <vehicle id="325" depart="227.50">
        <route edges="6:5 5:1 1:3 3:7"/>
    </vehicle>
    <vehicle id="326" depart="228.20">
        <route edges="2:0 0:1"/>
    </vehicle>
    <vehicle id="329" depart="230.30">
        <route edges="6:5 5:1 1:0 0:2"/>
    </vehicle>
    <vehicle id="331" depart="231.70">
        <route edges="7:3 3:1 1:0"/>
    </vehicle>
    <vehicle id="332" depart="232.40">
        <route edges="0:1"/>
    </vehicle>
    <vehicle id="334" depart="233.80">
        <route edges="1:3"/>
    </vehicle>
    <vehicle id="335" depart="234.50">
        <route edges="2:0 0:1 1:5 5:6"/>
    </vehicle>
    <vehicle id="336" depart="235.20">
        <route edges="3:1 1:0 0:2"/>
    </vehicle>
    <vehicle id="337" depart="235.90">
        <route edges="0:1 1:5"/>
    </vehicle>
    <vehicle id="341" depart="238.70">
        <route edges="3:1 1:0 0:2"/>
    </vehicle>
    <vehicle id="342" depart="239.40">
        <route edges="0:1"/>
    </vehicle>
    <vehicle id="344" depart="240.80">
        <route edges="0:1"/>
    </vehicle>
    <vehicle id="348" depart="243.60">
        <route edges="7:3 3:1 1:5 5:6"/>
    </vehicle>
    <vehicle id="349" depart="244.30">
        <route edges="5:1 1:0 0:2"/>
    </vehicle>
    <vehicle id="350" depart="245.00">
        <route edges="1:3"/>
    </vehicle>
    <vehicle id="358" depart="250.60">
        <route edges="0:1"/>
    </vehicle>
    <vehicle id="359" depart="251.30">
        <route edges="7:3 3:1 1:5 5:6"/>
    </vehicle>
    <vehicle id="361" depart="252.70">
        <route edges="6:5 5:1 1:0 0:2"/>
    </vehicle>
    <vehicle id="363" depart="254.10">
        <route edges="7:3 3:1 1:0"/>
    </vehicle>
    <vehicle id="364" depart="254.80">
        <route edges="7:3 3:1"/>
    </vehicle>
    <vehicle id="365" depart="255.50">
        <route edges="0:1 1:3 3:7"/>
    </vehicle>
    <vehicle id="366" depart="256.20">
        <route edges="7:3 3:1 1:0 0:2"/>
    </vehicle>
    <vehicle id="368" depart="257.60">
        <route edges="6:5 5:1 1:0 0:2"/>
    </vehicle>
    <vehicle id="369" depart="258.30">
        <route edges="7:3 3:1"/>
    </vehicle>
    <vehicle id="370" depart="259.00">
        <route edges="1:0 0:2"/>
    </vehicle>
    <vehicle id="371" depart="259.70">
        <route edges="6:5 5:1 1:0"/>
    </vehicle>
    <vehicle id="372" depart="260.40">
        <route edges="2:0 0:1 1:3 3:7"/>
    </vehicle>
    <vehicle id="374" depart="261.80">
        <route edges="6:5 5:1 1:0 0:2"/>
    </vehicle>
    <vehicle id="375" depart="262.50">
        <route edges="7:3 3:1"/>
    </vehicle>
    <vehicle id="376" depart="263.20">
        <route edges="2:0 0:1 1:3 3:7"/>
    </vehicle>
    <vehicle id="379" depart="265.30">
        <route edges="6:5 5:1 1:0 0:2"/>
    </vehicle>
    <vehicle id="382" depart="267.40">
        <route edges="7:3 3:1 1:5 5:6"/>
    </vehicle>
    <vehicle id="387" depart="270.90">
        <route edges="1:0 0:2"/>
    </vehicle>
    <vehicle id="388" depart="271.60">
        <route edges="3:1 1:0 0:2"/>
    </vehicle>
    <vehicle id="391" depart="273.70">
        <route edges="3:1"/>
    </vehicle>
    <vehicle id="392" depart="274.40">
        <route edges="0:1"/>
    </vehicle>
    <vehicle id="394" depart="275.80">
        <route edges="2:0 0:1 1:5"/>
    </vehicle>
    <vehicle id="395" depart="276.50">
        <route edges="2:0 0:1"/>
    </vehicle>
    <vehicle id="397" depart="277.90">
        <route edges="3:1 1:5 5:6"/>
    </vehicle>
    <vehicle id="398" depart="278.60">
        <route edges="7:3 3:1 1:0 0:2"/>
    </vehicle>
    <vehicle id="403" depart="282.10">
        <route edges="2:0 0:1 1:3"/>
    </vehicle>
    <vehicle id="406" depart="284.20">
        <route edges="6:5 5:1 1:3"/>
    </vehicle>
    <vehicle id="407" depart="284.90">
        <route edges="6:5 5:1 1:3 3:7"/>
    </vehicle>
    <vehicle id="408" depart="285.60">
        <route edges="2:0 0:1"/>
    </vehicle>
    <vehicle id="411" depart="287.70">
        <route edges="7:3 3:1 1:0 0:2"/>
    </vehicle>
    <vehicle id="413" depart="289.10">
        <route edges="6:5 5:1 1:3 3:7"/>
    </vehicle>
    <vehicle id="414" depart="289.80">
        <route edges="0:1"/>
    </vehicle>
    <vehicle id="415" depart="290.50">
        <route edges="2:0 0:1 1:3 3:7"/>
    </vehicle>
    <vehicle id="420" depart="294.00">
        <route edges="6:5 5:1 1:3 3:7"/>
    </vehicle>
    <vehicle id="421" depart="294.70">
        <route edges="2:0 0:1 1:5 5:6"/>
    </vehicle>
    <vehicle id="422" depart="295.40">
        <route edges="2:0 0:1 1:3 3:7"/>
    </vehicle>
    <vehicle id="423" depart="296.10">
        <route edges="2:0 0:1 1:3 3:7"/>
    </vehicle>
    <vehicle id="428" depart="299.60">
        <route edges="0:1 1:5 5:6"/>
    </vehicle>
    <vehicle id="431" depart="301.70">
        <route edges="6:5 5:1 1:0 0:2"/>
    </vehicle>
    <vehicle id="432" depart="302.40">
        <route edges="1:0 0:2"/>
    </vehicle>
    <vehicle id="434" depart="303.80">
        <route edges="7:3 3:1 1:0 0:2"/>
    </vehicle>
    <vehicle id="436" depart="305.20">
        <route edges="0:1 1:5"/>
    </vehicle>
    <vehicle id="438" depart="306.60">
        <route edges="2:0 0:1"/>
    </vehicle>
    <vehicle id="442" depart="309.40">
        <route edges="6:5 5:1 1:3 3:7"/>
    </vehicle>
    <vehicle id="447" depart="312.90">
        <route edges="6:5 5:1 1:3"/>
    </vehicle>
    <vehicle id="449" depart="314.30">
        <route edges="1:3 3:7"/>
    </vehicle>
    <vehicle id="452" depart="316.40">
        <route edges="7:3 3:1"/>
    </vehicle>
    <vehicle id="454" depart="317.80">
        <route edges="2:0 0:1 1:5 5:6"/>
    </vehicle>
    <vehicle id="455" depart="318.50">
        <route edges="7:3 3:1"/>
    </vehicle>
    <vehicle id="456" depart="319.20">
        <route edges="0:1"/>
    </vehicle>
    <vehicle id="458" depart="320.60">
        <route edges="6:5 5:1 1:3"/>
    </vehicle>
    <vehicle id="459" depart="321.30">
        <route edges="7:3 3:1 1:5 5:6"/>
    </vehicle>
    <vehicle id="462" depart="323.40">
        <route edges="1:5 5:6"/>
    </vehicle>
    <vehicle id="463" depart="324.10">
        <route edges="3:1 1:0"/>
    </vehicle>
    <vehicle id="464" depart="324.80">
        <route edges="7:3 3:1 1:0 0:2"/>
    </vehicle>
    <vehicle id="468" depart="327.60">
        <route edges="7:3 3:1 1:5 5:6"/>
    </vehicle>
    <vehicle id="470" depart="329.00">
        <route edges="2:0 0:1 1:3 3:7"/>
    </vehicle>
    <vehicle id="471" depart="329.70">
        <route edges="0:1"/>
    </vehicle>
    <vehicle id="474" depart="331.80">
        <route edges="5:1 1:3 3:7"/>
    </vehicle>
    <vehicle id="476" depart="333.20">
        <route edges="5:1 1:3"/>
    </vehicle>
    <vehicle id="477" depart="333.90">
        <route edges="0:1 1:3 3:7"/>
    </vehicle>
    <vehicle id="479" depart="335.30">
        <route edges="5:1 1:3 3:7"/>
    </vehicle>
    <vehicle id="480" depart="336.00">
        <route edges="3:1 1:5"/>
    </vehicle>
    <vehicle id="483" depart="338.10">
        <route edges="3:1 1:5 5:6"/>
    </vehicle>
    <vehicle id="485" depart="339.50">
        <route edges="2:0 0:1 1:3 3:7"/>
    </vehicle>
    <vehicle id="487" depart="340.90">
        <route edges="3:1 1:0 0:2"/>
    </vehicle>
    <vehicle id="489" depart="342.30">
        <route edges="1:3"/>
    </vehicle>
    <vehicle id="491" depart="343.70">
        <route edges="7:3 3:1 1:5"/>
    </vehicle>
    <vehicle id="495" depart="346.50">
        <route edges="1:0 0:2"/>
    </vehicle>
    <vehicle id="496" depart="347.20">
        <route edges="1:3 3:7"/>
    </vehicle>
    <vehicle id="498" depart="348.60">
        <route edges="2:0 0:1 1:3 3:7"/>
    </vehicle>
    <vehicle id="502" depart="351.40">
        <route edges="1:3 3:7"/>
    </vehicle>
    <vehicle id="503" depart="352.10">
        <route edges="3:1 1:5 5:6"/>
    </vehicle>
    <vehicle id="504" depart="352.80">
        <route edges="2:0 0:1 1:3"/>
    </vehicle>
    <vehicle id="505" depart="353.50">
        <route edges="2:0 0:1 1:3"/>
    </vehicle>
    <vehicle id="506" depart="354.20">
        <route edges="6:5 5:1 1:3 3:7"/>
    </vehicle>
    <vehicle id="507" depart="354.90">
        <route edges="7:3 3:1 1:0"/>
    </vehicle>
    <vehicle id="508" depart="355.60">
        <route edges="7:3 3:1 1:5"/>
    </vehicle>
    <vehicle id="509" depart="356.30">
        <route edges="1:3 3:7"/>
    </vehicle>
    <vehicle id="510" depart="357.00">
        <route edges="1:3 3:7"/>
    </vehicle>
    <vehicle id="511" depart="357.70">
        <route edges="5:1 1:0 0:2"/>
    </vehicle>
    <vehicle id="512" depart="358.40">
        <route edges="3:1 1:5 5:6"/>
    </vehicle>
    <vehicle id="514" depart="359.80">
        <route edges="0:1 1:3 3:7"/>
    </vehicle>
    <vehicle id="515" depart="360.50">
        <route edges="6:5 5:1 1:3 3:7"/>
    </vehicle>
    <vehicle id="516" depart="361.20">
        <route edges="2:0 0:1 1:3 3:7"/>
    </vehicle>
    <vehicle id="519" depart="363.30">
        <route edges="7:3 3:1 1:5 5:6"/>
    </vehicle>
    <vehicle id="520" depart="364.00">
        <route edges="7:3 3:1 1:0 0:2"/>
    </vehicle>
    <vehicle id="521" depart="364.70">
        <route edges="6:5 5:1 1:3 3:7"/>
    </vehicle>
    <vehicle id="522" depart="365.40">
        <route edges="3:1"/>
    </vehicle>
    <vehicle id="524" depart="366.80">
        <route edges="6:5 5:1 1:3 3:7"/>
    </vehicle>
    <vehicle id="525" depart="367.50">
        <route edges="7:3 3:1 1:5 5:6"/>
    </vehicle>
    <vehicle id="528" depart="369.60">
        <route edges="3:1 1:0 0:2"/>
    </vehicle>
    <vehicle id="529" depart="370.30">
        <route edges="1:3"/>
    </vehicle>
    <vehicle id="531" depart="371.70">
        <route edges="3:1 1:5"/>
    </vehicle>
    <vehicle id="535" depart="374.50">
        <route edges="7:3 3:1"/>
    </vehicle>
    <vehicle id="536" depart="375.20">
        <route edges="7:3 3:1 1:0 0:2"/>
    </vehicle>
    <vehicle id="537" depart="375.90">
        <route edges="2:0 0:1 1:3 3:7"/>
    </vehicle>
    <vehicle id="539" depart="377.30">
        <route edges="1:0 0:2"/>
    </vehicle>
    <vehicle id="545" depart="381.50">
        <route edges="1:5 5:6"/>
    </vehicle>
    <vehicle id="546" depart="382.20">
        <route edges="7:3 3:1 1:0"/>
    </vehicle>
    <vehicle id="547" depart="382.90">
        <route edges="1:3"/>
    </vehicle>
    <vehicle id="550" depart="385.00">
        <route edges="6:5 5:1 1:0 0:2"/>
    </vehicle>
    <vehicle id="553" depart="387.10">
        <route edges="1:0 0:2"/>
    </vehicle>
    <vehicle id="554" depart="387.80">
        <route edges="3:1 1:5 5:6"/>
    </vehicle>
    <vehicle id="555" depart="388.50">
        <route edges="2:0 0:1 1:5 5:6"/>
    </vehicle>
    <vehicle id="557" depart="389.90">
        <route edges="1:3 3:7"/>
    </vehicle>
    <vehicle id="558" depart="390.60">
        <route edges="7:3 3:1 1:5 5:6"/>
    </vehicle>
    <vehicle id="561" depart="392.70">
        <route edges="0:1 1:3 3:7"/>
    </vehicle>
    <vehicle id="563" depart="394.10">
        <route edges="1:3"/>
    </vehicle>
    <vehicle id="565" depart="395.50">
        <route edges="2:0 0:1 1:5"/>
    </vehicle>
    <vehicle id="566" depart="396.20">
        <route edges="2:0 0:1 1:3 3:7"/>
    </vehicle>
    <vehicle id="569" depart="398.30">
        <route edges="7:3 3:1 1:0 0:2"/>
    </vehicle>
    <vehicle id="570" depart="399.00">
        <route edges="0:1"/>
    </vehicle>
    <vehicle id="571" depart="399.70">
        <route edges="1:3"/>
    </vehicle>
    <vehicle id="572" depart="400.40">
        <route edges="2:0 0:1 1:3"/>
    </vehicle>
    <vehicle id="575" depart="402.50">
        <route edges="1:3 3:7"/>
    </vehicle>
    <vehicle id="579" depart="405.30">
        <route edges="6:5 5:1 1:0"/>
    </vehicle>
    <vehicle id="582" depart="407.40">
        <route edges="7:3 3:1 1:0"/>
    </vehicle>
    <vehicle id="584" depart="408.80">
        <route edges="0:1"/>
    </vehicle>
    <vehicle id="585" depart="409.50">
        <route edges="2:0 0:1 1:3 3:7"/>
    </vehicle>
    <vehicle id="586" depart="410.20">
        <route edges="6:5 5:1 1:0"/>
    </vehicle>
    <vehicle id="587" depart="410.90">
        <route edges="7:3 3:1 1:5 5:6"/>
    </vehicle>
    <vehicle id="590" depart="413.00">
        <route edges="7:3 3:1 1:5 5:6"/>
    </vehicle>
    <vehicle id="593" depart="415.10">
        <route edges="5:1 1:3 3:7"/>
    </vehicle>
    <vehicle id="596" depart="417.20">
        <route edges="6:5 5:1 1:0 0:2"/>
    </vehicle>
    <vehicle id="597" depart="417.90">
        <route edges="7:3 3:1 1:0 0:2"/>
    </vehicle>
    <vehicle id="598" depart="418.60">
        <route edges="2:0 0:1 1:3"/>
    </vehicle>
    <vehicle id="599" depart="419.30">
        <route edges="0:1"/>
    </vehicle>
    <vehicle id="602" depart="421.40">
        <route edges="0:1"/>
    </vehicle>
    <vehicle id="604" depart="422.80">
        <route edges="2:0 0:1"/>
    </vehicle>
    <vehicle id="612" depart="428.40">
        <route edges="5:1 1:3 3:7"/>
    </vehicle>
    <vehicle id="615" depart="430.50">
        <route edges="5:1 1:3"/>
    </vehicle>
    <vehicle id="617" depart="431.90">
        <route edges="1:0 0:2"/>
    </vehicle>
    <vehicle id="620" depart="434.00">
        <route edges="3:1 1:0"/>
    </vehicle>
    <vehicle id="623" depart="436.10">
        <route edges="6:5 5:1 1:0"/>
    </vehicle>
    <vehicle id="624" depart="436.80">
        <route edges="0:1 1:3"/>
    </vehicle>
    <vehicle id="625" depart="437.50">
        <route edges="1:0 0:2"/>
    </vehicle>
    <vehicle id="626" depart="438.20">
        <route edges="2:0 0:1 1:3 3:7"/>
    </vehicle>
    <vehicle id="630" depart="441.00">
        <route edges="0:1 1:3 3:7"/>
    </vehicle>
    <vehicle id="632" depart="442.40">
        <route edges="1:0 0:2"/>
    </vehicle>
    <vehicle id="634" depart="443.80">
        <route edges="0:1 1:5 5:6"/>
    </vehicle>
    <vehicle id="637" depart="445.90">
        <route edges="5:1 1:0 0:2"/>
    </vehicle>
    <vehicle id="639" depart="447.30">
        <route edges="6:5 5:1 1:3"/>
    </vehicle>
    <vehicle id="640" depart="448.00">
        <route edges="0:1 1:5 5:6"/>
    </vehicle>
    <vehicle id="642" depart="449.40">
        <route edges="1:3 3:7"/>
    </vehicle>
    <vehicle id="644" depart="450.80">
        <route edges="7:3 3:1 1:5 5:6"/>
    </vehicle>
    <vehicle id="645" depart="451.50">
        <route edges="1:3 3:7"/>
    </vehicle>
    <vehicle id="647" depart="452.90">
        <route edges="0:1 1:3 3:7"/>
    </vehicle>
    <vehicle id="652" depart="456.40">
        <route edges="2:0 0:1"/>
    </vehicle>
    <vehicle id="653" depart="457.10">
        <route edges="3:1 1:0"/>
    </vehicle>
    <vehicle id="655" depart="458.50">
        <route edges="7:3 3:1 1:0 0:2"/>
    </vehicle>