<?xml version="1.0" encoding="UTF-8"?>

<!-- generated on Thu Feb 13 12:37:12 2014 by SUMO duarouter Version 0.18.0
<?xml version="1.0" encoding="UTF-8"?>

<configuration xmlns:xsi="http://www.w3.org/2001/XMLSchema-instance" xsi:noNamespaceSchemaLocation="http://sumo.sf.net/xsd/duarouterConfiguration.xsd">

    <input>
        <net-file value="simpleT.net.xml"/>
        <trip-files value="experimentos/simpleT.p0.1.1.trips.xml"/>
    </input>

    <output>
        <output-file value="experimentos/simpleT.p0.1.1.rou.xml"/>
    </output>

    <processing>
        <ignore-errors value="true"/>
    </processing>

    <random_number>
        <random value="true"/>
    </random_number>

</configuration>
-->

<routes xmlns:xsi="http://www.w3.org/2001/XMLSchema-instance" xsi:noNamespaceSchemaLocation="http://sumo.sf.net/xsd/routes_file.xsd">
    <vehicle id="1" depart="0.10">
        <route edges="7:3 3:1 1:0 0:2"/>
    </vehicle>
    <vehicle id="3" depart="0.30">
        <route edges="7:3 3:1 1:0 0:2"/>
    </vehicle>
    <vehicle id="5" depart="0.50">
        <route edges="2:0 0:1 1:3 3:7"/>
    </vehicle>
    <vehicle id="6" depart="0.60">
        <route edges="0:1 1:3 3:7"/>
    </vehicle>
    <vehicle id="7" depart="0.70">
        <route edges="3:1"/>
    </vehicle>
    <vehicle id="8" depart="0.80">
        <route edges="2:0 0:1 1:3 3:7"/>
    </vehicle>
    <vehicle id="12" depart="1.20">
        <route edges="5:1 1:3"/>
    </vehicle>
    <vehicle id="15" depart="1.50">
        <route edges="7:3 3:1 1:5 5:6"/>
    </vehicle>
    <vehicle id="19" depart="1.90">
        <route edges="6:5 5:1 1:3 3:7"/>
    </vehicle>
    <vehicle id="21" depart="2.10">
        <route edges="6:5 5:1 1:3 3:7"/>
    </vehicle>
    <vehicle id="22" depart="2.20">
        <route edges="2:0 0:1 1:3 3:7"/>
    </vehicle>
    <vehicle id="23" depart="2.30">
        <route edges="3:1 1:5 5:6"/>
    </vehicle>
    <vehicle id="24" depart="2.40">
        <route edges="3:1 1:0 0:2"/>
    </vehicle>
    <vehicle id="25" depart="2.50">
        <route edges="3:1 1:0"/>
    </vehicle>
    <vehicle id="26" depart="2.60">
        <route edges="2:0 0:1 1:3"/>
    </vehicle>
    <vehicle id="28" depart="2.80">
        <route edges="2:0 0:1 1:3 3:7"/>
    </vehicle>
    <vehicle id="29" depart="2.90">
        <route edges="1:0 0:2"/>
    </vehicle>
    <vehicle id="33" depart="3.30">
        <route edges="7:3 3:1 1:0 0:2"/>
    </vehicle>
    <vehicle id="35" depart="3.50">
        <route edges="5:1 1:3"/>
    </vehicle>
    <vehicle id="36" depart="3.60">
        <route edges="2:0 0:1 1:3 3:7"/>
    </vehicle>
    <vehicle id="39" depart="3.90">
        <route edges="2:0 0:1"/>
    </vehicle>
    <vehicle id="42" depart="4.20">
        <route edges="0:1 1:3"/>
    </vehicle>
    <vehicle id="43" depart="4.30">
        <route edges="7:3 3:1 1:5 5:6"/>
    </vehicle>
    <vehicle id="46" depart="4.60">
        <route edges="0:1"/>
    </vehicle>
    <vehicle id="49" depart="4.90">
        <route edges="7:3 3:1"/>
    </vehicle>
    <vehicle id="51" depart="5.10">
        <route edges="6:5 5:1 1:3 3:7"/>
    </vehicle>
    <vehicle id="59" depart="5.90">
        <route edges="7:3 3:1 1:0"/>
    </vehicle>
    <vehicle id="60" depart="6.00">
        <route edges="1:0 0:2"/>
    </vehicle>
    <vehicle id="68" depart="6.80">
        <route edges="7:3 3:1"/>
    </vehicle>
    <vehicle id="69" depart="6.90">
        <route edges="7:3 3:1 1:0 0:2"/>
    </vehicle>
    <vehicle id="70" depart="7.00">
        <route edges="0:1"/>
    </vehicle>
    <vehicle id="71" depart="7.10">
        <route edges="0:1 1:3 3:7"/>
    </vehicle>
    <vehicle id="74" depart="7.40">
        <route edges="1:0"/>
    </vehicle>
    <vehicle id="75" depart="7.50">
        <route edges="2:0 0:1 1:5 5:6"/>
    </vehicle>
    <vehicle id="77" depart="7.70">
        <route edges="3:1 1:0"/>
    </vehicle>
    <vehicle id="78" depart="7.80">
        <route edges="6:5 5:1 1:3 3:7"/>
    </vehicle>
    <vehicle id="83" depart="8.30">
        <route edges="7:3 3:1 1:5 5:6"/>
    </vehicle>
    <vehicle id="84" depart="8.40">
        <route edges="6:5 5:1 1:3 3:7"/>
    </vehicle>
    <vehicle id="86" depart="8.60">
        <route edges="2:0 0:1 1:5"/>
    </vehicle>
    <vehicle id="87" depart="8.70">
        <route edges="7:3 3:1 1:0 0:2"/>
    </vehicle>
    <vehicle id="89" depart="8.90">
        <route edges="7:3 3:1 1:0 0:2"/>
    </vehicle>
    <vehicle id="90" depart="9.00">
        <route edges="7:3 3:1 1:5 5:6"/>
    </vehicle>
    <vehicle id="91" depart="9.10">
        <route edges="7:3 3:1 1:5 5:6"/>
    </vehicle>
    <vehicle id="92" depart="9.20">
        <route edges="2:0 0:1 1:5"/>
    </vehicle>
    <vehicle id="95" depart="9.50">
        <route edges="0:1 1:3 3:7"/>
    </vehicle>
    <vehicle id="96" depart="9.60">
        <route edges="2:0 0:1"/>
    </vehicle>
    <vehicle id="99" depart="9.90">
        <route edges="3:1 1:0 0:2"/>
    </vehicle>
    <vehicle id="100" depart="10.00">
        <route edges="1:0"/>
    </vehicle>
    <vehicle id="101" depart="10.10">
        <route edges="7:3 3:1 1:0 0:2"/>
    </vehicle>
    <vehicle id="102" depart="10.20">
        <route edges="5:1 1:3"/>
    </vehicle>
    <vehicle id="103" depart="10.30">
        <route edges="1:3"/>
    </vehicle>
    <vehicle id="104" depart="10.40">
        <route edges="2:0 0:1 1:3 3:7"/>
    </vehicle>
    <vehicle id="108" depart="10.80">
        <route edges="7:3 3:1"/>
    </vehicle>
    <vehicle id="111" depart="11.10">
        <route edges="2:0 0:1 1:3 3:7"/>
    </vehicle>
    <vehicle id="114" depart="11.40">
        <route edges="7:3 3:1 1:5"/>
    </vehicle>
    <vehicle id="115" depart="11.50">
        <route edges="2:0 0:1 1:3 3:7"/>
    </vehicle>
    <vehicle id="116" depart="11.60">
        <route edges="7:3 3:1 1:5 5:6"/>
    </vehicle>
    <vehicle id="117" depart="11.70">
        <route edges="0:1 1:5"/>
    </vehicle>
    <vehicle id="119" depart="11.90">
        <route edges="2:0 0:1"/>
    </vehicle>
    <vehicle id="126" depart="12.60">
        <route edges="0:1 1:3"/>
    </vehicle>
    <vehicle id="127" depart="12.70">
        <route edges="1:3 3:7"/>
    </vehicle>
    <vehicle id="128" depart="12.80">
        <route edges="7:3 3:1 1:0 0:2"/>
    </vehicle>
    <vehicle id="131" depart="13.10">
        <route edges="1:0 0:2"/>
    </vehicle>
    <vehicle id="132" depart="13.20">
        <route edges="3:1 1:0 0:2"/>
    </vehicle>
    <vehicle id="133" depart="13.30">
        <route edges="6:5 5:1 1:3 3:7"/>
    </vehicle>
    <vehicle id="141" depart="14.10">
        <route edges="6:5 5:1 1:3 3:7"/>
    </vehicle>
    <vehicle id="142" depart="14.20">
        <route edges="0:1 1:5"/>
    </vehicle>
    <vehicle id="146" depart="14.60">
        <route edges="3:1 1:0"/>
    </vehicle>
    <vehicle id="148" depart="14.80">
        <route edges="7:3 3:1 1:5"/>
    </vehicle>
    <vehicle id="149" depart="14.90">
        <route edges="2:0 0:1 1:5"/>
    </vehicle>
    <vehicle id="151" depart="15.10">
        <route edges="7:3 3:1"/>
    </vehicle>
    <vehicle id="152" depart="15.20">
        <route edges="1:3"/>
    </vehicle>
    <vehicle id="154" depart="15.40">
        <route edges="1:0 0:2"/>
    </vehicle>
    <vehicle id="157" depart="15.70">
        <route edges="7:3 3:1 1:0"/>
    </vehicle>
    <vehicle id="158" depart="15.80">
        <route edges="7:3 3:1 1:0"/>
    </vehicle>
    <vehicle id="159" depart="15.90">
        <route edges="2:0 0:1 1:3"/>
    </vehicle>
    <vehicle id="160" depart="16.00">
        <route edges="2:0 0:1 1:3 3:7"/>
    </vehicle>
    <vehicle id="161" depart="16.10">
        <route edges="2:0 0:1 1:3"/>
    </vehicle>
    <vehicle id="162" depart="16.20">
        <route edges="1:3"/>
    </vehicle>
    <vehicle id="163" depart="16.30">
        <route edges="1:0 0:2"/>
    </vehicle>
    <vehicle id="169" depart="16.90">
        <route edges="0:1 1:3"/>
    </vehicle>
    <vehicle id="170" depart="17.00">
        <route edges="2:0 0:1 1:5"/>
    </vehicle>
    <vehicle id="172" depart="17.20">
        <route edges="7:3 3:1 1:0"/>
    </vehicle>
    <vehicle id="173" depart="17.30">
        <route edges="2:0 0:1 1:3 3:7"/>
    </vehicle>
    <vehicle id="175" depart="17.50">
        <route edges="7:3 3:1 1:5 5:6"/>
    </vehicle>
    <vehicle id="176" depart="17.60">
        <route edges="0:1 1:3 3:7"/>
    </vehicle>
    <vehicle id="180" depart="18.00">
        <route edges="2:0 0:1 1:5 5:6"/>
    </vehicle>
    <vehicle id="182" depart="18.20">
        <route edges="3:1 1:5 5:6"/>
    </vehicle>
    <vehicle id="188" depart="18.80">
        <route edges="6:5 5:1 1:3"/>
    </vehicle>
    <vehicle id="190" depart="19.00">
        <route edges="3:1 1:0"/>
    </vehicle>
    <vehicle id="191" depart="19.10">
        <route edges="2:0 0:1 1:3 3:7"/>
    </vehicle>
    <vehicle id="194" depart="19.40">
        <route edges="0:1 1:3 3:7"/>
    </vehicle>
    <vehicle id="199" depart="19.90">
        <route edges="2:0 0:1 1:5"/>
    </vehicle>
    <vehicle id="206" depart="20.60">
        <route edges="0:1"/>
    </vehicle>
    <vehicle id="207" depart="20.70">
        <route edges="6:5 5:1 1:0"/>
    </vehicle>
    <vehicle id="214" depart="21.40">
        <route edges="7:3 3:1 1:0"/>
    </vehicle>
    <vehicle id="215" depart="21.50">
        <route edges="7:3 3:1 1:0 0:2"/>
    </vehicle>
    <vehicle id="221" depart="22.10">
        <route edges="2:0 0:1 1:5 5:6"/>
    </vehicle>
    <vehicle id="226" depart="22.60">
        <route edges="5:1 1:3 3:7"/>
    </vehicle>
    <vehicle id="228" depart="22.80">
        <route edges="5:1 1:0"/>
    </vehicle>
    <vehicle id="230" depart="23.00">
        <route edges="0:1 1:3 3:7"/>
    </vehicle>
    <vehicle id="231" depart="23.10">
        <route edges="2:0 0:1 1:3 3:7"/>
    </vehicle>
    <vehicle id="232" depart="23.20">
        <route edges="7:3 3:1 1:0"/>
    </vehicle>
    <vehicle id="234" depart="23.40">
        <route edges="7:3 3:1 1:5"/>
    </vehicle>
    <vehicle id="235" depart="23.50">
        <route edges="5:1 1:0 0:2"/>
    </vehicle>
    <vehicle id="236" depart="23.60">
        <route edges="2:0 0:1 1:5"/>
    </vehicle>
    <vehicle id="238" depart="23.80">
        <route edges="7:3 3:1"/>
    </vehicle>
    <vehicle id="239" depart="23.90">
        <route edges="0:1 1:3 3:7"/>
    </vehicle>
    <vehicle id="243" depart="24.30">
        <route edges="0:1"/>
    </vehicle>
    <vehicle id="246" depart="24.60">
        <route edges="1:3 3:7"/>
    </vehicle>
    <vehicle id="249" depart="24.90">
        <route edges="7:3 3:1 1:0 0:2"/>
    </vehicle>
    <vehicle id="250" depart="25.00">
        <route edges="1:3"/>
    </vehicle>
    <vehicle id="251" depart="25.10">
        <route edges="3:1 1:5"/>
    </vehicle>
    <vehicle id="258" depart="25.80">
        <route edges="7:3 3:1 1:0"/>
    </vehicle>
    <vehicle id="260" depart="26.00">
        <route edges="2:0 0:1 1:5 5:6"/>
    </vehicle>
    <vehicle id="262" depart="26.20">
        <route edges="7:3 3:1 1:0 0:2"/>
    </vehicle>
    <vehicle id="265" depart="26.50">
        <route edges="1:0 0:2"/>
    </vehicle>
    <vehicle id="266" depart="26.60">
        <route edges="6:5 5:1 1:0 0:2"/>
    </vehicle>
    <vehicle id="268" depart="26.80">
        <route edges="0:1"/>
    </vehicle>
    <vehicle id="269" depart="26.90">
        <route edges="7:3 3:1 1:0"/>
    </vehicle>
    <vehicle id="272" depart="27.20">
        <route edges="7:3 3:1"/>
    </vehicle>
    <vehicle id="275" depart="27.50">
        <route edges="3:1 1:0 0:2"/>
    </vehicle>
    <vehicle id="276" depart="27.60">
        <route edges="3:1 1:0 0:2"/>
    </vehicle>
    <vehicle id="280" depart="28.00">
        <route edges="1:0 0:2"/>
    </vehicle>
    <vehicle id="281" depart="28.10">
        <route edges="3:1 1:0 0:2"/>
    </vehicle>
    <vehicle id="282" depart="28.20">
        <route edges="0:1 1:5 5:6"/>
    </vehicle>
    <vehicle id="283" depart="28.30">
        <route edges="1:0"/>
    </vehicle>
    <vehicle id="285" depart="28.50">
        <route edges="2:0 0:1 1:3 3:7"/>
    </vehicle>
    <vehicle id="287" depart="28.70">
        <route edges="0:1 1:3 3:7"/>
    </vehicle>
    <vehicle id="288" depart="28.80">
        <route edges="7:3 3:1 1:5 5:6"/>
    </vehicle>
    <vehicle id="289" depart="28.90">
        <route edges="2:0 0:1 1:3 3:7"/>
    </vehicle>
    <vehicle id="292" depart="29.20">
        <route edges="0:1 1:3 3:7"/>
    </vehicle>
    <vehicle id="293" depart="29.30">
        <route edges="7:3 3:1 1:5 5:6"/>
    </vehicle>
    <vehicle id="295" depart="29.50">
        <route edges="7:3 3:1 1:0"/>
    </vehicle>
    <vehicle id="296" depart="29.60">
        <route edges="1:0"/>
    </vehicle>
    <vehicle id="297" depart="29.70">
        <route edges="6:5 5:1 1:3"/>
    </vehicle>
    <vehicle id="298" depart="29.80">
        <route edges="2:0 0:1 1:3"/>
    </vehicle>
    <vehicle id="299" depart="29.90">
        <route edges="6:5 5:1 1:3 3:7"/>
    </vehicle>
    <vehicle id="300" depart="30.00">
        <route edges="7:3 3:1 1:5"/>
    </vehicle>
    <vehicle id="301" depart="30.10">
        <route edges="0:1 1:3 3:7"/>
    </vehicle>
    <vehicle id="302" depart="30.20">
        <route edges="2:0 0:1"/>
    </vehicle>
    <vehicle id="303" depart="30.30">
        <route edges="2:0 0:1 1:5 5:6"/>
    </vehicle>
    <vehicle id="304" depart="30.40">
        <route edges="1:3 3:7"/>
    </vehicle>
    <vehicle id="308" depart="30.80">
        <route edges="5:1 1:3 3:7"/>
    </vehicle>
    <vehicle id="309" depart="30.90">
        <route edges="1:0 0:2"/>
    </vehicle>
    <vehicle id="310" depart="31.00">
        <route edges="6:5 5:1 1:0 0:2"/>
    </vehicle>
    <vehicle id="311" depart="31.10">
        <route edges="3:1"/>
    </vehicle>
    <vehicle id="313" depart="31.30">
        <route edges="2:0 0:1 1:5"/>
    </vehicle>
    <vehicle id="318" depart="31.80">
        <route edges="7:3 3:1 1:0 0:2"/>
    </vehicle>
    <vehicle id="319" depart="31.90">
        <route edges="6:5 5:1 1:3 3:7"/>
    </vehicle>
    <vehicle id="320" depart="32.00">
        <route edges="2:0 0:1 1:3 3:7"/>
    </vehicle>
    <vehicle id="322" depart="32.20">
        <route edges="5:1 1:0"/>
    </vehicle>
    <vehicle id="323" depart="32.30">
        <route edges="1:0 0:2"/>
    </vehicle>
    <vehicle id="328" depart="32.80">
        <route edges="5:1 1:0"/>
    </vehicle>
    <vehicle id="329" depart="32.90">
        <route edges="3:1 1:0 0:2"/>
    </vehicle>
    <vehicle id="330" depart="33.00">
        <route edges="6:5 5:1 1:0"/>
    </vehicle>
    <vehicle id="332" depart="33.20">
        <route edges="2:0 0:1 1:3 3:7"/>
    </vehicle>
    <vehicle id="333" depart="33.30">
        <route edges="2:0 0:1 1:3 3:7"/>
    </vehicle>
    <vehicle id="336" depart="33.60">
        <route edges="1:0"/>
    </vehicle>
    <vehicle id="337" depart="33.70">
        <route edges="6:5 5:1 1:3"/>
    </vehicle>
    <vehicle id="338" depart="33.80">
        <route edges="3:1 1:0"/>
    </vehicle>
    <vehicle id="339" depart="33.90">
        <route edges="5:1 1:0 0:2"/>
    </vehicle>
    <vehicle id="340" depart="34.00">
        <route edges="3:1 1:0 0:2"/>
    </vehicle>
    <vehicle id="345" depart="34.50">
        <route edges="0:1 1:5"/>
    </vehicle>
    <vehicle id="347" depart="34.70">
        <route edges="0:1 1:5 5:6"/>
    </vehicle>
    <vehicle id="349" depart="34.90">
        <route edges="0:1 1:5 5:6"/>
    </vehicle>
    <vehicle id="352" depart="35.20">
        <route edges="2:0 0:1 1:5"/>
    </vehicle>
    <vehicle id="353" depart="35.30">
        <route edges="3:1 1:5"/>
    </vehicle>
    <vehicle id="357" depart="35.70">
        <route edges="1:3 3:7"/>
    </vehicle>
    <vehicle id="358" depart="35.80">
        <route edges="3:1 1:0 0:2"/>
    </vehicle>
    <vehicle id="359" depart="35.90">
        <route edges="2:0 0:1 1:5 5:6"/>
    </vehicle>
    <vehicle id="360" depart="36.00">
        <route edges="0:1 1:5"/>
    </vehicle>
    <vehicle id="361" depart="36.10">
        <route edges="6:5 5:1 1:0 0:2"/>
    </vehicle>
    <vehicle id="363" depart="36.30">
        <route edges="0:1 1:5"/>
    </vehicle>
    <vehicle id="364" depart="36.40">
        <route edges="6:5 5:1 1:0 0:2"/>
    </vehicle>
    <vehicle id="365" depart="36.50">
        <route edges="1:3"/>
    </vehicle>
    <vehicle id="366" depart="36.60">
        <route edges="6:5 5:1 1:3 3:7"/>
    </vehicle>
    <vehicle id="369" depart="36.90">
        <route edges="1:3"/>
    </vehicle>
    <vehicle id="371" depart="37.10">
        <route edges="2:0 0:1 1:3 3:7"/>
    </vehicle>
    <vehicle id="373" depart="37.30">
        <route edges="7:3 3:1 1:5 5:6"/>
    </vehicle>
    <vehicle id="374" depart="37.40">
        <route edges="7:3 3:1 1:0 0:2"/>
    </vehicle>
    <vehicle id="381" depart="38.10">
        <route edges="7:3 3:1 1:5 5:6"/>
    </vehicle>
    <vehicle id="382" depart="38.20">
        <route edges="2:0 0:1 1:5 5:6"/>
    </vehicle>
    <vehicle id="383" depart="38.30">
        <route edges="7:3 3:1 1:5"/>
    </vehicle>
    <vehicle id="387" depart="38.70">
        <route edges="7:3 3:1 1:5"/>
    </vehicle>
    <vehicle id="389" depart="38.90">
        <route edges="1:0 0:2"/>
    </vehicle>
    <vehicle id="391" depart="39.10">
        <route edges="2:0 0:1 1:5"/>
    </vehicle>
    <vehicle id="392" depart="39.20">
        <route edges="0:1 1:5"/>
    </vehicle>
    <vehicle id="393" depart="39.30">
        <route edges="2:0 0:1 1:3 3:7"/>
    </vehicle>
    <vehicle id="394" depart="39.40">
        <route edges="2:0 0:1 1:5"/>
    </vehicle>
    <vehicle id="396" depart="39.60">
        <route edges="1:0 0:2"/>
    </vehicle>
    <vehicle id="400" depart="40.00">
        <route edges="6:5 5:1"/>
    </vehicle>
    <vehicle id="401" depart="40.10">
        <route edges="5:1 1:0"/>
    </vehicle>
    <vehicle id="402" depart="40.20">
        <route edges="7:3 3:1 1:5"/>
    </vehicle>
    <vehicle id="404" depart="40.40">
        <route edges="7:3 3:1"/>
    </vehicle>
    <vehicle id="406" depart="40.60">
        <route edges="2:0 0:1 1:5 5:6"/>
    </vehicle>
    <vehicle id="407" depart="40.70">
        <route edges="2:0 0:1 1:3 3:7"/>
    </vehicle>
    <vehicle id="408" depart="40.80">
        <route edges="2:0 0:1"/>
    </vehicle>
    <vehicle id="409" depart="40.90">
        <route edges="5:1"/>
    </vehicle>
    <vehicle id="410" depart="41.00">
        <route edges="7:3 3:1"/>
    </vehicle>
    <vehicle id="412" depart="41.20">
        <route edges="2:0 0:1 1:3 3:7"/>
    </vehicle>
    <vehicle id="413" depart="41.30">
        <route edges="7:3 3:1 1:0 0:2"/>
    </vehicle>
    <vehicle id="415" depart="41.50">
        <route edges="5:1 1:3 3:7"/>
    </vehicle>
    <vehicle id="416" depart="41.60">
        <route edges="0:1 1:3 3:7"/>
    </vehicle>
    <vehicle id="417" depart="41.70">
        <route edges="0:1 1:5"/>
    </vehicle>
    <vehicle id="419" depart="41.90">
        <route edges="2:0 0:1 1:3 3:7"/>
    </vehicle>
    <vehicle id="421" depart="42.10">
        <route edges="7:3 3:1 1:0 0:2"/>
    </vehicle>
    <vehicle id="422" depart="42.20">
        <route edges="1:0 0:2"/>
    </vehicle>
    <vehicle id="429" depart="42.90">
        <route edges="7:3 3:1 1:5 5:6"/>
    </vehicle>
    <vehicle id="430" depart="43.00">
        <route edges="3:1 1:0"/>
    </vehicle>
    <vehicle id="433" depart="43.30">
        <route edges="7:3 3:1 1:0"/>
    </vehicle>
    <vehicle id="435" depart="43.50">
        <route edges="6:5 5:1 1:0"/>
    </vehicle>
    <vehicle id="437" depart="43.70">
        <route edges="2:0 0:1 1:3 3:7"/>
    </vehicle>
    <vehicle id="440" depart="44.00">
        <route edges="6:5 5:1 1:3"/>
    </vehicle>
    <vehicle id="441" depart="44.10">
        <route edges="3:1 1:0 0:2"/>
    </vehicle>
    <vehicle id="443" depart="44.30">
        <route edges="7:3 3:1 1:0 0:2"/>
    </vehicle>
    <vehicle id="445" depart="44.50">
        <route edges="2:0 0:1 1:5"/>
    </vehicle>
    <vehicle id="446" depart="44.60">
        <route edges="1:3 3:7"/>
    </vehicle>
    <vehicle id="449" depart="44.90">
        <route edges="0:1 1:5 5:6"/>
    </vehicle>
    <vehicle id="450" depart="45.00">
        <route edges="7:3 3:1"/>
    </vehicle>
    <vehicle id="452" depart="45.20">
        <route edges="2:0 0:1 1:5 5:6"/>
    </vehicle>
    <vehicle id="453" depart="45.30">
        <route edges="2:0 0:1 1:5 5:6"/>
    </vehicle>
    <vehicle id="454" depart="45.40">
        <route edges="7:3 3:1 1:0 0:2"/>
    </vehicle>
    <vehicle id="456" depart="45.60">
        <route edges="1:5"/>
    </vehicle>
    <vehicle id="460" depart="46.00">
        <route edges="5:1 1:3 3:7"/>
    </vehicle>
    <vehicle id="461" depart="46.10">
        <route edges="7:3 3:1 1:0"/>
    </vehicle>
    <vehicle id="464" depart="46.40">
        <route edges="7:3 3:1 1:5 5:6"/>
    </vehicle>
    <vehicle id="465" depart="46.50">
        <route edges="1:5 5:6"/>
    </vehicle>
    <vehicle id="466" depart="46.60">
        <route edges="3:1 1:0 0:2"/>
    </vehicle>
    <vehicle id="469" depart="46.90">
        <route edges="3:1 1:0"/>
    </vehicle>
    <vehicle id="473" depart="47.30">
        <route edges="2:0 0:1 1:3 3:7"/>
    </vehicle>
    <vehicle id="475" depart="47.50">
        <route edges="2:0 0:1 1:5 5:6"/>
    </vehicle>
    <vehicle id="476" depart="47.60">
        <route edges="2:0 0:1 1:3"/>
    </vehicle>
    <vehicle id="483" depart="48.30">
        <route edges="3:1 1:0"/>
    </vehicle>
    <vehicle id="488" depart="48.80">
        <route edges="1:0"/>
    </vehicle>
    <vehicle id="490" depart="49.00">
        <route edges="7:3 3:1 1:5"/>
    </vehicle>
    <vehicle id="492" depart="49.20">
        <route edges="7:3 3:1 1:5"/>
    </vehicle>
    <vehicle id="493" depart="49.30">
        <route edges="7:3 3:1 1:0 0:2"/>
    </vehicle>
    <vehicle id="494" depart="49.40">
        <route edges="2:0 0:1 1:5"/>
    </vehicle>
    <vehicle id="495" depart="49.50">
        <route edges="5:1 1:3 3:7"/>
    </vehicle>
    <vehicle id="498" depart="49.80">
        <route edges="2:0 0:1 1:3"/>
    </vehicle>
    <vehicle id="499" depart="49.90">
        <route edges="3:1"/>
    </vehicle>
    <vehicle id="503" depart="50.30">
        <route edges="7:3 3:1 1:0 0:2"/>
    </vehicle>
    <vehicle id="504" depart="50.40">
        <route edges="7:3 3:1 1:0"/>
    </vehicle>
    <vehicle id="505" depart="50.50">
        <route edges="0:1 1:3 3:7"/>
    </vehicle>
    <vehicle id="506" depart="50.60">
        <route edges="0:1 1:5"/>
    </vehicle>
    <vehicle id="508" depart="50.80">
        <route edges="5:1 1:0 0:2"/>
    </vehicle>
    <vehicle id="509" depart="50.90">
        <route edges="2:0 0:1 1:3 3:7"/>
    </vehicle>
    <vehicle id="510" depart="51.00">
        <route edges="5:1 1:3 3:7"/>
    </vehicle>
    <vehicle id="511" depart="51.10">
        <route edges="7:3 3:1 1:0"/>
    </vehicle>
    <vehicle id="512" depart="51.20">
        <route edges="7:3 3:1 1:5"/>
    </vehicle>
    <vehicle id="513" depart="51.30">
        <route edges="6:5 5:1"/>
    </vehicle>
    <vehicle id="515" depart="51.50">
        <route edges="2:0 0:1 1:3 3:7"/>
    </vehicle>
    <vehicle id="518" depart="51.80">
        <route edges="2:0 0:1 1:5 5:6"/>
    </vehicle>
    <vehicle id="520" depart="52.00">
        <route edges="6:5 5:1 1:3"/>
    </vehicle>
    <vehicle id="524" depart="52.40">
        <route edges="2:0 0:1 1:3"/>
    </vehicle>
    <vehicle id="526" depart="52.60">
        <route edges="0:1 1:3"/>
    </vehicle>
    <vehicle id="527" depart="52.70">
        <route edges="6:5 5:1 1:3"/>
    </vehicle>
    <vehicle id="529" depart="52.90">
        <route edges="2:0 0:1 1:5"/>
    </vehicle>
    <vehicle id="530" depart="53.00">
        <route edges="7:3 3:1 1:0"/>
    </vehicle>
    <vehicle id="532" depart="53.20">
        <route edges="2:0 0:1 1:5 5:6"/>
    </vehicle>
    <vehicle id="534" depart="53.40">
        <route edges="0:1 1:3 3:7"/>
    </vehicle>
    <vehicle id="535" depart="53.50">
        <route edges="7:3 3:1"/>
    </vehicle>
    <vehicle id="536" depart="53.60">
        <route edges="5:1 1:0 0:2"/>
    </vehicle>
    <vehicle id="537" depart="53.70">
        <route edges="2:0 0:1 1:5"/>
    </vehicle>
    <vehicle id="538" depart="53.80">
        <route edges="3:1 1:0"/>
    </vehicle>
    <vehicle id="540" depart="54.00">
        <route edges="3:1 1:0 0:2"/>
    </vehicle>
    <vehicle id="543" depart="54.30">
        <route edges="0:1"/>
    </vehicle>
    <vehicle id="544" depart="54.40">
        <route edges="2:0 0:1"/>
    </vehicle>
    <vehicle id="549" depart="54.90">
        <route edges="0:1"/>
    </vehicle>
    <vehicle id="552" depart="55.20">
        <route edges="2:0 0:1"/>
    </vehicle>
    <vehicle id="554" depart="55.40">
        <route edges="0:1"/>
    </vehicle>
    <vehicle id="555" depart="55.50">
        <route edges="7:3 3:1"/>
    </vehicle>
    <vehicle id="556" depart="55.60">
        <route edges="1:0 0:2"/>
    </vehicle>
    <vehicle id="560" depart="56.00">
        <route edges="5:1 1:3 3:7"/>
    </vehicle>
    <vehicle id="564" depart="56.40">
        <route edges="2:0 0:1 1:3 3:7"/>
    </vehicle>
    <vehicle id="570" depart="57.00">
        <route edges="3:1 1:5 5:6"/>
    </vehicle>
    <vehicle id="571" depart="57.10">
        <route edges="1:5"/>
    </vehicle>
    <vehicle id="573" depart="57.30">
        <route edges="2:0 0:1 1:3 3:7"/>
    </vehicle>
    <vehicle id="575" depart="57.50">
        <route edges="7:3 3:1 1:5 5:6"/>
    </vehicle>
    <vehicle id="578" depart="57.80">
        <route edges="6:5 5:1 1:3"/>
    </vehicle>
    <vehicle id="580" depart="58.00">
        <route edges="7:3 3:1 1:5 5:6"/>
    </vehicle>
    <vehicle id="581" depart="58.10">
        <route edges="6:5 5:1 1:0"/>
    </vehicle>
    <vehicle id="582" depart="58.20">
        <route edges="2:0 0:1 1:3 3:7"/>
    </vehicle>
    <vehicle id="587" depart="58.70">
        <route edges="0:1 1:5"/>
    </vehicle>
    <vehicle id="588" depart="58.80">
        <route edges="3:1 1:5 5:6"/>
    </vehicle>
    <vehicle id="589" depart="58.90">
        <route edges="3:1 1:0 0:2"/>
    </vehicle>
    <vehicle id="593" depart="59.30">
        <route edges="2:0 0:1 1:5"/>
    </vehicle>
    <vehicle id="595" depart="59.50">
        <route edges="7:3 3:1"/>
    </vehicle>
    <vehicle id="598" depart="59.80">
        <route edges="7:3 3:1 1:0 0:2"/>
    </vehicle>
    <vehicle id="602" depart="60.20">
        <route edges="7:3 3:1 1:0"/>
    </vehicle>
    <vehicle id="603" depart="60.30">
        <route edges="2:0 0:1 1:3"/>
    </vehicle>
    <vehicle id="604" depart="60.40">
        <route edges="3:1 1:5 5:6"/>
    </vehicle>
    <vehicle id="605" depart="60.50">
        <route edges="3:1 1:0 0:2"/>
    </vehicle>
    <vehicle id="608" depart="60.80">
        <route edges="2:0 0:1 1:5"/>
    </vehicle>
    <vehicle id="613" depart="61.30">
        <route edges="2:0 0:1 1:3 3:7"/>
    </vehicle>
    <vehicle id="615" depart="61.50">
        <route edges="2:0 0:1 1:5 5:6"/>
    </vehicle>
    <vehicle id="616" depart="61.60">
        <route edges="1:0 0:2"/>
    </vehicle>
    <vehicle id="617" depart="61.70">
        <route edges="7:3 3:1 1:0"/>
    </vehicle>
    <vehicle id="618" depart="61.80">
        <route edges="2:0 0:1 1:5"/>
    </vehicle>
    <vehicle id="619" depart="61.90">
        <route edges="3:1"/>
    </vehicle>
    <vehicle id="626" depart="62.60">
        <route edges="2:0 0:1 1:3"/>
    </vehicle>
    <vehicle id="629" depart="62.90">
        <route edges="2:0 0:1 1:5 5:6"/>
    </vehicle>
    <vehicle id="631" depart="63.10">
        <route edges="1:0"/>
    </vehicle>
    <vehicle id="633" depart="63.30">
        <route edges="7:3 3:1 1:0"/>
    </vehicle>
    <vehicle id="635" depart="63.50">
        <route edges="6:5 5:1 1:3 3:7"/>
    </vehicle>
    <vehicle id="636" depart="63.60">
        <route edges="7:3 3:1 1:0 0:2"/>
    </vehicle>
    <vehicle id="637" depart="63.70">
        <route edges="7:3 3:1 1:0"/>
    </vehicle>
    <vehicle id="638" depart="63.80">
        <route edges="1:0"/>
    </vehicle>
    <vehicle id="639" depart="63.90">
        <route edges="6:5 5:1 1:0"/>
    </vehicle>
    <vehicle id="640" depart="64.00">
        <route edges="2:0 0:1 1:3"/>
    </vehicle>
    <vehicle id="641" depart="64.10">
        <route edges="7:3 3:1 1:0 0:2"/>
    </vehicle>
    <vehicle id="644" depart="64.40">
        <route edges="2:0 0:1 1:5 5:6"/>
    </vehicle>
    <vehicle id="646" depart="64.60">
        <route edges="2:0 0:1"/>
    </vehicle>
    <vehicle id="649" depart="64.90">
        <route edges="6:5 5:1 1:0 0:2"/>
    </vehicle>
    <vehicle id="650" depart="65.00">
        <route edges="3:1 1:5"/>
    </vehicle>
    <vehicle id="651" depart="65.10">
        <route edges="7:3 3:1 1:0"/>
    </vehicle>
    <vehicle id="652" depart="65.20">
        <route edges="2:0 0:1 1:5 5:6"/>
    </vehicle>
    <vehicle id="655" depart="65.50">
        <route edges="2:0 0:1"/>
    </vehicle>
    <vehicle id="657" depart="65.70">
        <route edges="6:5 5:1 1:3 3:7"/>
    </vehicle>
    <vehicle id="658" depart="65.80">
        <route edges="5:1 1:3"/>
    </vehicle>
    <vehicle id="659" depart="65.90">
        <route edges="7:3 3:1 1:0 0:2"/>
    </vehicle>
    <vehicle id="662" depart="66.20">
        <route edges="5:1 1:0 0:2"/>
    </vehicle>
    <vehicle id="663" depart="66.30">
        <route edges="7:3 3:1 1:0 0:2"/>
    </vehicle>
    <vehicle id="664" depart="66.40">
        <route edges="7:3 3:1 1:0 0:2"/>
    </vehicle>
    <vehicle id="665" depart="66.50">
        <route edges="1:0 0:2"/>
    </vehicle>
    <vehicle id="666" depart="66.60">