<?xml version="1.0" encoding="UTF-8"?>

<!-- generated on Thu Feb 13 14:16:25 2014 by SUMO duarouter Version 0.18.0
<?xml version="1.0" encoding="UTF-8"?>

<configuration xmlns:xsi="http://www.w3.org/2001/XMLSchema-instance" xsi:noNamespaceSchemaLocation="http://sumo.sf.net/xsd/duarouterConfiguration.xsd">

    <input>
        <net-file value="twinT.net.xml"/>
        <trip-files value="experimentos/twinT.p1.0.1.trips.xml"/>
    </input>

    <output>
        <output-file value="experimentos/twinT.p1.0.1.rou.xml"/>
    </output>

    <processing>
        <ignore-errors value="true"/>
    </processing>

    <random_number>
        <random value="true"/>
    </random_number>

</configuration>
-->
<!-- <routes xmlns:xsi="http://www.w3.org/2001/XMLSchema-instance" xsi:noNamespaceSchemaLocation="http://sumo.sf.net/xsd/routes_file.xsd">-->
<routes>
    <vehicle id="0" depart="0.00">
        <route edges="10:9 9:0 0:1 1:3 3:7"/>
    </vehicle>
    <vehicle id="11" depart="11.00">
        <route edges="0:1 1:3 3:7"/>
    </vehicle>
    <vehicle id="13" depart="13.00">
        <route edges="8:2 2:0"/>
    </vehicle>
    <vehicle id="17" depart="17.00">
        <route edges="7:3 3:1 1:0 0:2"/>
    </vehicle>
    <vehicle id="18" depart="18.00">
        <route edges="8:2 2:0 0:1 1:3"/>
    </vehicle>
    <vehicle id="21" depart="21.00">
        <route edges="7:3 3:1 1:0"/>
    </vehicle>
    <vehicle id="23" depart="23.00">
        <route edges="6:5 5:1 1:3"/>
    </vehicle>
    <vehicle id="24" depart="24.00">
        <route edges="7:3 3:1"/>
    </vehicle>
    <vehicle id="29" depart="29.00">
        <route edges="7:3 3:1 1:0 0:2"/>
    </vehicle>
    <vehicle id="35" depart="35.00">
        <route edges="2:0 0:9 9:10"/>
    </vehicle>
    <vehicle id="39" depart="39.00">
        <route edges="6:5 5:1 1:0 0:2 2:8"/>
    </vehicle>
    <vehicle id="40" depart="40.00">
        <route edges="8:2 2:0 0:9"/>
    </vehicle>
    <vehicle id="42" depart="42.00">
        <route edges="0:2"/>
    </vehicle>
    <vehicle id="43" depart="43.00">
        <route edges="9:0 0:1 1:3 3:7"/>
    </vehicle>
    <vehicle id="44" depart="44.00">
        <route edges="10:9 9:0 0:1 1:5 5:6"/>
    </vehicle>
    <vehicle id="45" depart="45.00">
        <route edges="7:3 3:1 1:0 0:2 2:8"/>
    </vehicle>
    <vehicle id="46" depart="46.00">
        <route edges="3:1 1:5 5:6"/>
    </vehicle>
    <vehicle id="47" depart="47.00">
        <route edges="7:3 3:1 1:0 0:2 2:8"/>
    </vehicle>
    <vehicle id="49" depart="49.00">
        <route edges="8:2 2:0 0:1 1:3 3:7"/>
    </vehicle>
    <vehicle id="50" depart="50.00">
        <route edges="7:3 3:1 1:0 0:2 2:8"/>
    </vehicle>
    <vehicle id="51" depart="51.00">
        <route edges="2:0 0:1 1:3"/>
    </vehicle>
    <vehicle id="52" depart="52.00">
        <route edges="0:1 1:3"/>
    </vehicle>
    <vehicle id="54" depart="54.00">
        <route edges="1:3 3:7"/>
    </vehicle>
    <vehicle id="56" depart="56.00">
        <route edges="7:3 3:1 1:5 5:6"/>
    </vehicle>
    <vehicle id="57" depart="57.00">
        <route edges="10:9 9:0 0:1 1:3 3:7"/>
    </vehicle>
    <vehicle id="58" depart="58.00">
        <route edges="6:5 5:1 1:0"/>
    </vehicle>
    <vehicle id="61" depart="61.00">
        <route edges="8:2 2:0 0:1 1:5 5:6"/>
    </vehicle>
    <vehicle id="62" depart="62.00">
        <route edges="0:2 2:8"/>
    </vehicle>
    <vehicle id="63" depart="63.00">
        <route edges="0:2 2:8"/>
    </vehicle>
    <vehicle id="65" depart="65.00">
        <route edges="7:3 3:1"/>
    </vehicle>
    <vehicle id="66" depart="66.00">
        <route edges="6:5 5:1 1:3"/>
    </vehicle>
    <vehicle id="68" depart="68.00">
        <route edges="3:1 1:0 0:2"/>
    </vehicle>
    <vehicle id="69" depart="69.00">
        <route edges="2:0"/>
    </vehicle>
    <vehicle id="71" depart="71.00">
        <route edges="7:3 3:1"/>
    </vehicle>
    <vehicle id="72" depart="72.00">
        <route edges="6:5 5:1 1:0 0:2 2:8"/>
    </vehicle>
    <vehicle id="75" depart="75.00">
        <route edges="2:0 0:1 1:3 3:7"/>
    </vehicle>
    <vehicle id="77" depart="77.00">
        <route edges="8:2 2:0 0:1 1:3"/>
    </vehicle>
    <vehicle id="83" depart="83.00">
        <route edges="8:2 2:0"/>
    </vehicle>
    <vehicle id="86" depart="86.00">
        <route edges="7:3 3:1 1:0 0:2 2:8"/>
    </vehicle>
    <vehicle id="88" depart="88.00">
        <route edges="5:1 1:3 3:7"/>
    </vehicle>
    <vehicle id="94" depart="94.00">
        <route edges="1:3 3:7"/>
    </vehicle>
    <vehicle id="95" depart="95.00">
        <route edges="7:3 3:1"/>
    </vehicle>
    <vehicle id="97" depart="97.00">
        <route edges="1:3 3:7"/>
    </vehicle>
    <vehicle id="98" depart="98.00">
        <route edges="5:1 1:3 3:7"/>
    </vehicle>
    <vehicle id="99" depart="99.00">
        <route edges="0:2 2:8"/>
    </vehicle>
    <vehicle id="100" depart="100.00">
        <route edges="7:3 3:1 1:0 0:2 2:8"/>
    </vehicle>
    <vehicle id="102" depart="102.00">
        <route edges="5:1 1:0"/>
    </vehicle>
    <vehicle id="103" depart="103.00">
        <route edges="3:1 1:0"/>
    </vehicle>
    <vehicle id="107" depart="107.00">
        <route edges="0:2"/>
    </vehicle>
    <vehicle id="108" depart="108.00">
        <route edges="5:1 1:0 0:2 2:8"/>
    </vehicle>
    <vehicle id="109" depart="109.00">
        <route edges="8:2 2:0 0:1 1:3"/>
    </vehicle>
    <vehicle id="111" depart="111.00">
        <route edges="8:2 2:0 0:1 1:5 5:6"/>
    </vehicle>
    <vehicle id="112" depart="112.00">
        <route edges="8:2 2:0 0:1 1:3 3:7"/>
    </vehicle>
    <vehicle id="113" depart="113.00">
        <route edges="1:3"/>
    </vehicle>
    <vehicle id="115" depart="115.00">
        <route edges="8:2 2:0 0:1 1:5 5:6"/>
    </vehicle>
    <vehicle id="118" depart="118.00">
        <route edges="9:0 0:1 1:5 5:6"/>
    </vehicle>
    <vehicle id="119" depart="119.00">
        <route edges="2:0 0:9"/>
    </vehicle>
    <vehicle id="122" depart="122.00">
        <route edges="6:5 5:1 1:0 0:2 2:8"/>
    </vehicle>
    <vehicle id="124" depart="124.00">
        <route edges="2:0 0:9 9:10"/>
    </vehicle>
    <vehicle id="126" depart="126.00">
        <route edges="1:0 0:2"/>
    </vehicle>
    <vehicle id="130" depart="130.00">
        <route edges="0:2"/>
    </vehicle>
    <vehicle id="133" depart="133.00">
        <route edges="5:1 1:0 0:2 2:8"/>
    </vehicle>
    <vehicle id="135" depart="135.00">
        <route edges="0:2"/>
    </vehicle>
    <vehicle id="138" depart="138.00">
        <route edges="3:1 1:0 0:9"/>
    </vehicle>
    <vehicle id="141" depart="141.00">
        <route edges="3:1 1:5 5:6"/>
    </vehicle>
    <vehicle id="143" depart="143.00">
        <route edges="8:2 2:0 0:1 1:3 3:7"/>
    </vehicle>
    <vehicle id="144" depart="144.00">
        <route edges="8:2 2:0 0:1 1:5 5:6"/>
    </vehicle>
    <vehicle id="148" depart="148.00">
        <route edges="8:2 2:0 0:1 1:5 5:6"/>
    </vehicle>
    <vehicle id="149" depart="149.00">
        <route edges="8:2 2:0 0:1 1:5 5:6"/>
    </vehicle>
    <vehicle id="151" depart="151.00">
        <route edges="8:2 2:0 0:1 1:3 3:7"/>
    </vehicle>
    <vehicle id="152" depart="152.00">
        <route edges="0:2"/>
    </vehicle>
    <vehicle id="155" depart="155.00">
        <route edges="10:9 9:0 0:1 1:3 3:7"/>
    </vehicle>
    <vehicle id="157" depart="157.00">
        <route edges="8:2 2:0 0:9"/>
    </vehicle>
    <vehicle id="159" depart="159.00">
        <route edges="10:9 9:0 0:1 1:3 3:7"/>
    </vehicle>
    <vehicle id="161" depart="161.00">
        <route edges="2:0 0:1 1:3 3:7"/>
    </vehicle>
    <vehicle id="163" depart="163.00">
        <route edges="7:3 3:1 1:0 0:9 9:10"/>
    </vehicle>
    <vehicle id="167" depart="167.00">
        <route edges="10:9 9:0 0:1 1:5 5:6"/>
    </vehicle>
    <vehicle id="168" depart="168.00">
        <route edges="2:0 0:1 1:3"/>
    </vehicle>
    <vehicle id="171" depart="171.00">
        <route edges="7:3 3:1"/>
    </vehicle>
    <vehicle id="172" depart="172.00">
        <route edges="8:2 2:0 0:9 9:10"/>
    </vehicle>
    <vehicle id="173" depart="173.00">
        <route edges="7:3 3:1 1:5 5:6"/>
    </vehicle>
    <vehicle id="176" depart="176.00">
        <route edges="8:2 2:0 0:1"/>
    </vehicle>
    <vehicle id="177" depart="177.00">
        <route edges="10:9 9:0"/>
    </vehicle>
    <vehicle id="182" depart="182.00">
        <route edges="8:2 2:0 0:9 9:10"/>
    </vehicle>
    <vehicle id="183" depart="183.00">
        <route edges="8:2 2:0 0:1 1:3"/>
    </vehicle>
    <vehicle id="186" depart="186.00">
        <route edges="6:5 5:1 1:0 0:2 2:8"/>
    </vehicle>
    <vehicle id="187" depart="187.00">
        <route edges="8:2 2:0 0:1 1:3 3:7"/>
    </vehicle>
    <vehicle id="188" depart="188.00">
        <route edges="6:5 5:1 1:0"/>
    </vehicle>
    <vehicle id="192" depart="192.00">
        <route edges="7:3 3:1 1:5 5:6"/>
    </vehicle>
    <vehicle id="193" depart="193.00">
        <route edges="2:0 0:1 1:3"/>
    </vehicle>
    <vehicle id="194" depart="194.00">
        <route edges="3:1 1:0 0:9"/>
    </vehicle>
    <vehicle id="195" depart="195.00">
        <route edges="7:3 3:1 1:0 0:2 2:8"/>
    </vehicle>
    <vehicle id="196" depart="196.00">
        <route edges="6:5 5:1 1:0 0:2 2:8"/>
    </vehicle>
    <vehicle id="201" depart="201.00">
        <route edges="0:2 2:8"/>
    </vehicle>
    <vehicle id="203" depart="203.00">
        <route edges="1:0 0:9"/>
    </vehicle>
    <vehicle id="205" depart="205.00">
        <route edges="8:2 2:0 0:1 1:5 5:6"/>
    </vehicle>
    <vehicle id="210" depart="210.00">
        <route edges="6:5 5:1 1:3 3:7"/>
    </vehicle>
    <vehicle id="212" depart="212.00">
        <route edges="2:0 0:1 1:3 3:7"/>
    </vehicle>
    <vehicle id="213" depart="213.00">
        <route edges="9:0 0:1 1:5 5:6"/>
    </vehicle>
    <vehicle id="215" depart="215.00">
        <route edges="5:1 1:0 0:9 9:10"/>
    </vehicle>
    <vehicle id="216" depart="216.00">
        <route edges="2:0 0:1 1:5 5:6"/>
    </vehicle>
    <vehicle id="219" depart="219.00">
        <route edges="0:2 2:8"/>
    </vehicle>
    <vehicle id="220" depart="220.00">
        <route edges="9:0 0:2"/>
    </vehicle>
    <vehicle id="223" depart="223.00">
        <route edges="8:2 2:0 0:1 1:3 3:7"/>
    </vehicle>
    <vehicle id="225" depart="225.00">
        <route edges="1:0 0:9"/>
    </vehicle>
    <vehicle id="231" depart="231.00">
        <route edges="1:3 3:7"/>
    </vehicle>
    <vehicle id="232" depart="232.00">
        <route edges="2:0 0:1 1:3 3:7"/>
    </vehicle>
    <vehicle id="235" depart="235.00">
        <route edges="0:1 1:5 5:6"/>
    </vehicle>
    <vehicle id="237" depart="237.00">
        <route edges="5:1 1:3"/>
    </vehicle>
    <vehicle id="238" depart="238.00">
        <route edges="2:0 0:1 1:3 3:7"/>
    </vehicle>
    <vehicle id="239" depart="239.00">
        <route edges="6:5 5:1 1:0 0:2"/>
    </vehicle>
    <vehicle id="245" depart="245.00">
        <route edges="7:3 3:1"/>
    </vehicle>
    <vehicle id="247" depart="247.00">
        <route edges="6:5 5:1"/>
    </vehicle>
    <vehicle id="258" depart="258.00">
        <route edges="3:1 1:0 0:9"/>
    </vehicle>
    <vehicle id="259" depart="259.00">
        <route edges="0:2"/>
    </vehicle>
    <vehicle id="260" depart="260.00">
        <route edges="8:2 2:0 0:1 1:3 3:7"/>
    </vehicle>
    <vehicle id="263" depart="263.00">
        <route edges="3:1 1:0 0:2 2:8"/>
    </vehicle>
    <vehicle id="265" depart="265.00">
        <route edges="10:9 9:0 0:2 2:8"/>
    </vehicle>
    <vehicle id="269" depart="269.00">
        <route edges="8:2 2:0 0:9"/>
    </vehicle>
    <vehicle id="270" depart="270.00">
        <route edges="7:3 3:1 1:0 0:2 2:8"/>
    </vehicle>
    <vehicle id="274" depart="274.00">
        <route edges="1:3 3:7"/>
    </vehicle>
    <vehicle id="277" depart="277.00">
        <route edges="6:5 5:1 1:3"/>
    </vehicle>
    <vehicle id="278" depart="278.00">
        <route edges="1:0 0:2 2:8"/>
    </vehicle>
    <vehicle id="279" depart="279.00">
        <route edges="8:2 2:0 0:1 1:3 3:7"/>
    </vehicle>
    <vehicle id="281" depart="281.00">
        <route edges="1:0 0:2 2:8"/>
    </vehicle>
    <vehicle id="283" depart="283.00">
        <route edges="0:1 1:3 3:7"/>
    </vehicle>
    <vehicle id="284" depart="284.00">
        <route edges="1:3 3:7"/>
    </vehicle>
    <vehicle id="285" depart="285.00">
        <route edges="6:5 5:1 1:0 0:9 9:10"/>
    </vehicle>
    <vehicle id="289" depart="289.00">
        <route edges="2:0 0:1 1:3 3:7"/>
    </vehicle>
    <vehicle id="290" depart="290.00">
        <route edges="0:2 2:8"/>
    </vehicle>
    <vehicle id="291" depart="291.00">
        <route edges="1:5 5:6"/>
    </vehicle>
    <vehicle id="297" depart="297.00">
        <route edges="0:1 1:3 3:7"/>
    </vehicle>
    <vehicle id="298" depart="298.00">
        <route edges="0:2"/>
    </vehicle>
    <vehicle id="300" depart="300.00">
        <route edges="8:2 2:0"/>
    </vehicle>
    <vehicle id="302" depart="302.00">
        <route edges="0:2 2:8"/>
    </vehicle>
    <vehicle id="305" depart="305.00">
        <route edges="3:1 1:0 0:2"/>
    </vehicle>
    <vehicle id="307" depart="307.00">
        <route edges="3:1 1:0 0:2"/>
    </vehicle>
    <vehicle id="309" depart="309.00">
        <route edges="7:3 3:1 1:0 0:2 2:8"/>
    </vehicle>
    <vehicle id="311" depart="311.00">
        <route edges="7:3 3:1"/>
    </vehicle>
    <vehicle id="313" depart="313.00">
        <route edges="8:2 2:0 0:9"/>
    </vehicle>
    <vehicle id="314" depart="314.00">
        <route edges="7:3 3:1 1:0"/>
    </vehicle>
    <vehicle id="317" depart="317.00">
        <route edges="2:0 0:1 1:5 5:6"/>
    </vehicle>
    <vehicle id="318" depart="318.00">
        <route edges="8:2 2:0 0:1 1:5 5:6"/>
    </vehicle>
    <vehicle id="319" depart="319.00">
        <route edges="9:0 0:2 2:8"/>
    </vehicle>
    <vehicle id="322" depart="322.00">
        <route edges="7:3 3:1 1:0 0:9"/>
    </vehicle>
    <vehicle id="326" depart="326.00">
        <route edges="7:3 3:1 1:0 0:2 2:8"/>
    </vehicle>
    <vehicle id="328" depart="328.00">
        <route edges="7:3 3:1 1:0 0:9"/>
    </vehicle>
    <vehicle id="331" depart="331.00">
        <route edges="7:3 3:1 1:0"/>
    </vehicle>
    <vehicle id="333" depart="333.00">
        <route edges="8:2 2:0 0:1 1:5"/>
    </vehicle>
    <vehicle id="335" depart="335.00">
        <route edges="8:2 2:0 0:9"/>
    </vehicle>
    <vehicle id="337" depart="337.00">
        <route edges="3:1 1:0 0:2 2:8"/>
    </vehicle>
    <vehicle id="338" depart="338.00">
        <route edges="8:2 2:0 0:1"/>
    </vehicle>
    <vehicle id="344" depart="344.00">
        <route edges="6:5 5:1 1:0 0:9"/>
    </vehicle>
    <vehicle id="345" depart="345.00">
        <route edges="3:1"/>
    </vehicle>
    <vehicle id="346" depart="346.00">
        <route edges="8:2 2:0"/>
    </vehicle>
    <vehicle id="347" depart="347.00">
        <route edges="2:0 0:1 1:5 5:6"/>
    </vehicle>
    <vehicle id="348" depart="348.00">
        <route edges="3:1 1:0 0:9 9:10"/>
    </vehicle>
    <vehicle id="350" depart="350.00">
        <route edges="6:5 5:1 1:3"/>
    </vehicle>
    <vehicle id="354" depart="354.00">
        <route edges="9:0 0:1 1:3 3:7"/>
    </vehicle>
    <vehicle id="356" depart="356.00">
        <route edges="8:2 2:0 0:1 1:3 3:7"/>
    </vehicle>
    <vehicle id="361" depart="361.00">
        <route edges="7:3 3:1 1:0 0:9 9:10"/>
    </vehicle>
    <vehicle id="363" depart="363.00">
        <route edges="0:1 1:3"/>
    </vehicle>
    <vehicle id="364" depart="364.00">
        <route edges="1:3 3:7"/>
    </vehicle>
    <vehicle id="365" depart="365.00">
        <route edges="0:2 2:8"/>
    </vehicle>
    <vehicle id="369" depart="369.00">
        <route edges="3:1 1:0 0:2 2:8"/>
    </vehicle>
    <vehicle id="370" depart="370.00">
        <route edges="1:3 3:7"/>
    </vehicle>
    <vehicle id="372" depart="372.00">
        <route edges="7:3 3:1 1:5 5:6"/>
    </vehicle>
    <vehicle id="375" depart="375.00">
        <route edges="0:2 2:8"/>
    </vehicle>
    <vehicle id="376" depart="376.00">
        <route edges="6:5 5:1 1:3 3:7"/>
    </vehicle>
    <vehicle id="378" depart="378.00">
        <route edges="7:3 3:1"/>
    </vehicle>
    <vehicle id="379" depart="379.00">
        <route edges="7:3 3:1 1:0"/>
    </vehicle>
    <vehicle id="380" depart="380.00">
        <route edges="7:3 3:1 1:0 0:2 2:8"/>
    </vehicle>
    <vehicle id="383" depart="383.00">
        <route edges="3:1 1:0 0:2 2:8"/>
    </vehicle>
    <vehicle id="384" depart="384.00">
        <route edges="3:1 1:0 0:2 2:8"/>
    </vehicle>
    <vehicle id="385" depart="385.00">
        <route edges="7:3 3:1 1:0"/>
    </vehicle>
    <vehicle id="386" depart="386.00">
        <route edges="6:5 5:1 1:3 3:7"/>
    </vehicle>
    <vehicle id="389" depart="389.00">
        <route edges="5:1 1:0 0:2 2:8"/>
    </vehicle>
    <vehicle id="392" depart="392.00">
        <route edges="1:3 3:7"/>
    </vehicle>
    <vehicle id="393" depart="393.00">
        <route edges="7:3 3:1 1:0 0:2"/>
    </vehicle>
    <vehicle id="394" depart="394.00">
        <route edges="2:0 0:1 1:5"/>
    </vehicle>
    <vehicle id="397" depart="397.00">
        <route edges="3:1"/>
    </vehicle>
    <vehicle id="399" depart="399.00">
        <route edges="7:3 3:1 1:0 0:9"/>
    </vehicle>
    <vehicle id="400" depart="400.00">
        <route edges="6:5 5:1 1:3 3:7"/>
    </vehicle>
    <vehicle id="401" depart="401.00">
        <route edges="8:2 2:0 0:1 1:3 3:7"/>
    </vehicle>
    <vehicle id="404" depart="404.00">
        <route edges="7:3 3:1 1:0 0:9"/>
    </vehicle>
    <vehicle id="405" depart="405.00">
        <route edges="8:2 2:0 0:1 1:3"/>
    </vehicle>
    <vehicle id="407" depart="407.00">
        <route edges="0:1 1:3 3:7"/>
    </vehicle>
    <vehicle id="408" depart="408.00">
        <route edges="8:2 2:0"/>
    </vehicle>
    <vehicle id="409" depart="409.00">
        <route edges="7:3 3:1 1:0 0:2"/>
    </vehicle>
    <vehicle id="412" depart="412.00">
        <route edges="0:1 1:5"/>
    </vehicle>
    <vehicle id="417" depart="417.00">
        <route edges="2:0 0:1 1:3 3:7"/>
    </vehicle>
    <vehicle id="419" depart="419.00">
        <route edges="8:2 2:0 0:1"/>
    </vehicle>
    <vehicle id="420" depart="420.00">
        <route edges="9:0 0:1 1:5"/>
    </vehicle>
    <vehicle id="421" depart="421.00">
        <route edges="9:0 0:2"/>
    </vehicle>
    <vehicle id="422" depart="422.00">
        <route edges="10:9 9:0 0:1 1:3 3:7"/>
    </vehicle>
    <vehicle id="425" depart="425.00">
        <route edges="8:2 2:0 0:1 1:3 3:7"/>
    </vehicle>
    <vehicle id="428" depart="428.00">
        <route edges="9:0"/>
    </vehicle>
    <vehicle id="431" depart="431.00">
        <route edges="0:2 2:8"/>
    </vehicle>
    <vehicle id="432" depart="432.00">
        <route edges="8:2 2:0 0:1 1:3"/>
    </vehicle>
    <vehicle id="433" depart="433.00">
        <route edges="7:3 3:1 1:0"/>
    </vehicle>
    <vehicle id="435" depart="435.00">
        <route edges="3:1 1:0 0:2 2:8"/>
    </vehicle>
    <vehicle id="436" depart="436.00">
        <route edges="7:3 3:1"/>
    </vehicle>
    <vehicle id="437" depart="437.00">
        <route edges="7:3 3:1 1:0 0:2 2:8"/>
    </vehicle>
    <vehicle id="438" depart="438.00">
        <route edges="1:3 3:7"/>
    </vehicle>
    <vehicle id="440" depart="440.00">
        <route edges="0:1 1:3 3:7"/>
    </vehicle>
    <vehicle id="441" depart="441.00">
        <route edges="7:3 3:1 1:0 0:9 9:10"/>
    </vehicle>
    <vehicle id="445" depart="445.00">
        <route edges="0:1 1:3"/>
    </vehicle>
    <vehicle id="446" depart="446.00">
        <route edges="8:2 2:0 0:1 1:5"/>
    </vehicle>
    <vehicle id="447" depart="447.00">
        <route edges="2:0 0:9 9:10"/>
    </vehicle>
    <vehicle id="449" depart="449.00">
        <route edges="8:2 2:0 0:1 1:5"/>
    </vehicle>
    <vehicle id="450" depart="450.00">
        <route edges="8:2 2:0 0:1 1:5"/>
    </vehicle>
    <vehicle id="451" depart="451.00">
        <route edges="10:9 9:0 0:1 1:3"/>
    </vehicle>
    <vehicle id="453" depart="453.00">
        <route edges="8:2 2:0 0:1 1:3 3:7"/>
    </vehicle>
    <vehicle id="459" depart="459.00">
        <route edges="8:2 2:0"/>
    </vehicle>
    <vehicle id="461" depart="461.00">
        <route edges="10:9 9:0 0:1 1:3 3:7"/>
    </vehicle>
    <vehicle id="464" depart="464.00">
        <route edges="7:3 3:1 1:5 5:6"/>
    </vehicle>
    <vehicle id="466" depart="466.00">
        <route edges="5:1 1:0"/>
    </vehicle>
    <vehicle id="467" depart="467.00">
        <route edges="1:3 3:7"/>
    </vehicle>
    <vehicle id="468" depart="468.00">
        <route edges="10:9 9:0 0:2"/>
    </vehicle>
    <vehicle id="470" depart="470.00">
        <route edges="3:1"/>
    </vehicle>
    <vehicle id="471" depart="471.00">
        <route edges="6:5 5:1 1:0 0:9 9:10"/>
    </vehicle>
    <vehicle id="473" depart="473.00">
        <route edges="8:2 2:0 0:1 1:3"/>
    </vehicle>
    <vehicle id="475" depart="475.00">
        <route edges="8:2 2:0"/>
    </vehicle>
    <vehicle id="476" depart="476.00">
        <route edges="5:1 1:0 0:2"/>
    </vehicle>
    <vehicle id="477" depart="477.00">
        <route edges="0:2"/>
    </vehicle>
    <vehicle id="479" depart="479.00">
        <route edges="9:0 0:2 2:8"/>
    </vehicle>
    <vehicle id="480" depart="480.00">
        <route edges="8:2 2:0 0:1 1:5 5:6"/>
    </vehicle>
    <vehicle id="482" depart="482.00">
        <route edges="7:3 3:1 1:0"/>
    </vehicle>
    <vehicle id="483" depart="483.00">
        <route edges="7:3 3:1"/>
    </vehicle>
    <vehicle id="485" depart="485.00">
        <route edges="1:3 3:7"/>
    </vehicle>
    <vehicle id="489" depart="489.00">
        <route edges="8:2 2:0 0:9"/>
    </vehicle>
    <vehicle id="490" depart="490.00">
        <route edges="10:9 9:0 0:1 1:3 3:7"/>
    </vehicle>
    <vehicle id="491" depart="491.00">
        <route edges="2:0 0:1 1:3 3:7"/>
    </vehicle>
    <vehicle id="492" depart="492.00">
        <route edges="0:1 1:3"/>
    </vehicle>
    <vehicle id="493" depart="493.00">
        <route edges="1:0 0:2 2:8"/>
    </vehicle>
    <vehicle id="495" depart="495.00">
        <route edges="7:3 3:1 1:0"/>
    </vehicle>
    <vehicle id="498" depart="498.00">
        <route edges="9:0 0:1 1:3"/>
    </vehicle>
    <vehicle id="499" depart="499.00">
        <route edges="10:9 9:0 0:1"/>
    </vehicle>
    <vehicle id="501" depart="501.00">
        <route edges="8:2 2:0 0:1 1:3"/>
    </vehicle>
    <vehicle id="503" depart="503.00">
        <route edges="1:3 3:7"/>
    </vehicle>
    <vehicle id="508" depart="508.00">
        <route edges="9:0 0:1 1:5 5:6"/>
    </vehicle>
    <vehicle id="509" depart="509.00">
        <route edges="6:5 5:1 1:0 0:9"/>
    </vehicle>
    <vehicle id="516" depart="516.00">
        <route edges="5:1 1:0"/>
    </vehicle>
    <vehicle id="519" depart="519.00">
        <route edges="8:2 2:0 0:1 1:3 3:7"/>
    </vehicle>
    <vehicle id="520" depart="520.00">
        <route edges="7:3 3:1 1:0 0:2 2:8"/>
    </vehicle>
    <vehicle id="521" depart="521.00">
        <route edges="1:3"/>
    </vehicle>
    <vehicle id="523" depart="523.00">
        <route edges="8:2 2:0 0:1 1:3"/>
    </vehicle>
    <vehicle id="524" depart="524.00">
        <route edges="7:3 3:1 1:0 0:9"/>
    </vehicle>
    <vehicle id="526" depart="526.00">
        <route edges="9:0 0:2 2:8"/>
    </vehicle>
    <vehicle id="529" depart="529.00">
        <route edges="5:1 1:0 0:9 9:10"/>
    </vehicle>
    <vehicle id="530" depart="530.00">
        <route edges="0:1 1:3"/>
    </vehicle>
    <vehicle id="533" depart="533.00">
        <route edges="7:3 3:1 1:0"/>
    </vehicle>
    <vehicle id="536" depart="536.00">
        <route edges="8:2 2:0 0:9"/>
    </vehicle>
    <vehicle id="537" depart="537.00">
        <route edges="7:3 3:1 1:0 0:2 2:8"/>
    </vehicle>
    <vehicle id="539" depart="539.00">
        <route edges="1:3 3:7"/>
    </vehicle>
    <vehicle id="541" depart="541.00">
        <route edges="6:5 5:1 1:0"/>
    </vehicle>
    <vehicle id="543" depart="543.00">
        <route edges="8:2 2:0 0:1 1:3 3:7"/>
    </vehicle>
    <vehicle id="545" depart="545.00">
        <route edges="5:1 1:0 0:9 9:10"/>
    </vehicle>
    <vehicle id="547" depart="547.00">
        <route edges="8:2 2:0 0:1 1:3"/>
    </vehicle>
    <vehicle id="550" depart="550.00">
        <route edges="10:9 9:0 0:1 1:3 3:7"/>
    </vehicle>
    <vehicle id="556" depart="556.00">
        <route edges="10:9 9:0 0:1 1:3 3:7"/>
    </vehicle>
    <vehicle id="558" depart="558.00">
        <route edges="10:9 9:0 0:1 1:3 3:7"/>
    </vehicle>
    <vehicle id="560" depart="560.00">
        <route edges="1:3 3:7"/>
    </vehicle>
    <vehicle id="563" depart="563.00">
        <route edges="5:1 1:3"/>
    </vehicle>
    <vehicle id="564" depart="564.00">
        <route edges="7:3 3:1 1:0 0:2 2:8"/>
    </vehicle>
    <vehicle id="568" depart="568.00">
        <route edges="5:1 1:0 0:9"/>
    </vehicle>
    <vehicle id="569" depart="569.00">
        <route edges="1:3"/>
    </vehicle>
    <vehicle id="574" depart="574.00">
        <route edges="10:9 9:0"/>
    </vehicle>
    <vehicle id="576" depart="576.00">
        <route edges="6:5 5:1 1:3"/>
    </vehicle>
    <vehicle id="578" depart="578.00">
        <route edges="1:3"/>
    </vehicle>
    <vehicle id="579" depart="579.00">
        <route edges="8:2 2:0 0:1 1:3 3:7"/>
    </vehicle>
    <vehicle id="580" depart="580.00">
        <route edges="8:2 2:0 0:1"/>
    </vehicle>
    <vehicle id="581" depart="581.00">
        <route edges="7:3 3:1 1:0 0:9 9:10"/>
    </vehicle>
    <vehicle id="585" depart="585.00">
        <route edges="0:2"/>
    </vehicle>
    <vehicle id="587" depart="587.00">
        <route edges="0:2 2:8"/>
    </vehicle>
    <vehicle id="591" depart="591.00">
        <route edges="5:1 1:0 0:9"/>
    </vehicle>
    <vehicle id="592" depart="592.00">
        <route edges="7:3 3:1 1:5"/>
    </vehicle>
    <vehicle id="594" depart="594.00">
        <route edges="7:3 3:1 1:5 5:6"/>
    </vehicle>
    <vehicle id="595" depart="595.00">
        <route edges="3:1 1:0 0:2"/>
    </vehicle>
    <vehicle id="598" depart="598.00">
        <route edges="3:1 1:0 0:9 9:10"/>
    </vehicle>
    <vehicle id="603" depart="603.00">
        <route edges="1:0 0:2 2:8"/>
    </vehicle>
    <vehicle id="608" depart="608.00">
        <route edges="7:3 3:1 1:0 0:9 9:10"/>
    </vehicle>
    <vehicle id="609" depart="609.00">
        <route edges="2:0"/>
    </vehicle>
    <vehicle id="610" depart="610.00">
        <route edges="8:2 2:0 0:1 1:3 3:7"/>
    </vehicle>
    <vehicle id="612" depart="612.00">
        <route edges="5:1 1:3 3:7"/>
    </vehicle>
    <vehicle id="615" depart="615.00">
        <route edges="9:0 0:1"/>
    </vehicle>
    <vehicle id="616" depart="616.00">
        <route edges="8:2 2:0 0:9 9:10"/>
    </vehicle>
    <vehicle id="621" depart="621.00">
        <route edges="7:3 3:1 1:0 0:2"/>
    </vehicle>
    <vehicle id="626" depart="626.00">
        <route edges="8:2 2:0 0:9 9:10"/>
    </vehicle>
    <vehicle id="627" depart="627.00">
        <route edges="8:2 2:0 0:1 1:3 3:7"/>
    </vehicle>
    <vehicle id="628" depart="628.00">
        <route edges="7:3 3:1 1:0 0:9 9:10"/>
    </vehicle>
    <vehicle id="630" depart="630.00">
        <route edges="3:1 1:0"/>
    </vehicle>
    <vehicle id="631" depart="631.00">
        <route edges="7:3 3:1 1:0 0:2"/>
    </vehicle>
    <vehicle id="632" depart="632.00">
        <route edges="10:9 9:0 0:2 2:8"/>
    </vehicle>
    <vehicle id="633" depart="633.00">
        <route edges="6:5 5:1 1:3"/>
    </vehicle>
    <vehicle id="634" depart="634.00">
        <route edges="6:5 5:1 1:0 0:9 9:10"/>
    </vehicle>
    <vehicle id="635" depart="635.00">
        <route edges="2:0 0:9 9:10"/>
    </vehicle>
    <vehicle id="637" depart="637.00">
        <route edges="6:5 5:1 1:3"/>
    </vehicle>
    <vehicle id="638" depart="638.00">
        <route edges="1:0"/>
    </vehicle>
    <vehicle id="639" depart="639.00">
        <route edges="10:9 9:0 0:1 1:3"/>
    </vehicle>
    <vehicle id="641" depart="641.00">
        <route edges="9:0 0:1 1:3"/>
    </vehicle>
    <vehicle id="642" depart="642.00">
        <route edges="8:2 2:0 0:1 1:3"/>
    </vehicle>
    <vehicle id="644" depart="644.00">
        <route edges="0:2 2:8"/>
    </vehicle>
    <vehicle id="645" depart="645.00">
        <route edges="8:2 2:0 0:1 1:3 3:7"/>
    </vehicle>
    <vehicle id="647" depart="647.00">
        <route edges="3:1 1:0"/>
    </vehicle>
    <vehicle id="653" depart="653.00">
        <route edges="2:0"/>
    </vehicle>
    <vehicle id="654" depart="654.00">
        <route edges="2:0"/>
    </vehicle>
    <vehicle id="655" depart="655.00">
        <route edges="5:1 1:0 0:9"/>
    </vehicle>
    <vehicle id="657" depart="657.00">
        <route edges="3:1 1:5 5:6"/>
    </vehicle>
    <vehicle id="658" depart="658.00">
        <route edges="8:2 2:0"/>
    </vehicle>
    <vehicle id="659" depart="659.00">
        <route edges="6:5 5:1 1:0 0:2"/>
    </vehicle>
    <vehicle id="660" depart="660.00">
        <route edges="6:5 5:1 1:3 3:7"/>
    </vehicle>
    <vehicle id="661" depart="661.00">
        <route edges="9:0 0:2"/>
    </vehicle>
    <vehicle id="662" depart="662.00">
        <route edges="1:0 0:9"/>
    </vehicle>
    <vehicle id="663" depart="663.00">
        <route edges="7:3 3:1 1:5"/>
    </vehicle>
    <vehicle id="667" depart="667.00">
        <route edges="1:5 5:6"/>
    </vehicle>
    <vehicle id="672" depart="672.00">