<additional>
	<e1Detector file="e1output.xml" freq="30" friendlyPos="x" id="e1det_-141844775_0" lane="-141844775_0" length="81.85" pos="0"/>
	<e1Detector file="e1output.xml" freq="30" friendlyPos="x" id="e1det_201272993#5_0" lane="201272993#5_0" length="34.64" pos="1.4155343564e-15"/>
	<e1Detector file="e1output.xml" freq="30" friendlyPos="x" id="e1det_201272993#5_1" lane="201272993#5_1" length="34.64" pos="1.4155343564e-15"/>
	<e1Detector file="e1output.xml" freq="30" friendlyPos="x" id="e1det_89756026#8_0" lane="89756026#8_0" length="63.07" pos="1.4155343564e-15"/>
	<e1Detector file="e1output.xml" freq="30" friendlyPos="x" id="e1det_89756026#8_1" lane="89756026#8_1" length="63.07" pos="1.4155343564e-15"/>
	<e1Detector file="e1output.xml" freq="30" friendlyPos="x" id="e1det_-148007427#1_0" lane="-148007427#1_0" length="119.28" pos="0"/>
	<e1Detector file="e1output.xml" freq="30" friendlyPos="x" id="e1det_-148007427#1_1" lane="-148007427#1_1" length="119.28" pos="0"/>
	<e1Detector file="e1output.xml" freq="30" friendlyPos="x" id="e1det_148007427#0_0" lane="148007427#0_0" length="95.47" pos="0"/>
	<e1Detector file="e1output.xml" freq="30" friendlyPos="x" id="e1det_148007427#0_1" lane="148007427#0_1" length="95.47" pos="0"/>
	<e1Detector file="e1output.xml" freq="30" friendlyPos="x" id="e1det_161486227#1_0" lane="161486227#1_0" length="87.42" pos="0"/>
	<e1Detector file="e1output.xml" freq="30" friendlyPos="x" id="e1det_161486227#1_1" lane="161486227#1_1" length="87.42" pos="0"/>
	<e1Detector file="e1output.xml" freq="30" friendlyPos="x" id="e1det_-148007427#2_0" lane="-148007427#2_0" length="115.87" pos="0"/>
	<e1Detector file="e1output.xml" freq="30" friendlyPos="x" id="e1det_-148007427#2_1" lane="-148007427#2_1" length="115.87" pos="0"/>
	<e1Detector file="e1output.xml" freq="30" friendlyPos="x" id="e1det_148005416#4_0" lane="148005416#4_0" length="65.68" pos="0"/>
	<e1Detector file="e1output.xml" freq="30" friendlyPos="x" id="e1det_148005416#4_1" lane="148005416#4_1" length="65.68" pos="0"/>
	<e1Detector file="e1output.xml" freq="30" friendlyPos="x" id="e1det_148007427#1_0" lane="148007427#1_0" length="119.28" pos="0"/>
	<e1Detector file="e1output.xml" freq="30" friendlyPos="x" id="e1det_148007427#1_1" lane="148007427#1_1" length="119.28" pos="0"/>
	<e1Detector file="e1output.xml" freq="30" friendlyPos="x" id="e1det_-148394065#1_0" lane="-148394065#1_0" length="0.6" pos="0"/>
	<e1Detector file="e1output.xml" freq="30" friendlyPos="x" id="e1det_148394065#0_0" lane="148394065#0_0" length="15.06" pos="0"/>
	<e1Detector file="e1output.xml" freq="30" friendlyPos="x" id="e1det_151380683#3_0" lane="151380683#3_0" length="18.81" pos="1.4155343564e-15"/>
	<e1Detector file="e1output.xml" freq="30" friendlyPos="x" id="e1det_151380683#3_1" lane="151380683#3_1" length="18.81" pos="1.4155343564e-15"/>
	<e1Detector file="e1output.xml" freq="30" friendlyPos="x" id="e1det_161486226#2_0" lane="161486226#2_0" length="3.36" pos="8.32667268469e-17"/>
	<e1Detector file="e1output.xml" freq="30" friendlyPos="x" id="e1det_90941257#4_0" lane="90941257#4_0" length="67.39" pos="0"/>
	<e1Detector file="e1output.xml" freq="30" friendlyPos="x" id="e1det_-156672358#4_0" lane="-156672358#4_0" length="63.38" pos="1.4155343564e-15"/>
	<e1Detector file="e1output.xml" freq="30" friendlyPos="x" id="e1det_156672358#3_0" lane="156672358#3_0" length="103.0" pos="0"/>
	<e1Detector file="e1output.xml" freq="30" friendlyPos="x" id="e1det_200662752_0" lane="200662752_0" length="43.4" pos="1.4155343564e-15"/>
	<e1Detector file="e1output.xml" freq="30" friendlyPos="x" id="e1det_200662752_1" lane="200662752_1" length="43.4" pos="1.4155343564e-15"/>
	<e1Detector file="e1output.xml" freq="30" friendlyPos="x" id="e1det_-91312497#1_0" lane="-91312497#1_0" length="0.21" pos="0"/>
	<e1Detector file="e1output.xml" freq="30" friendlyPos="x" id="e1det_141880681#1_0" lane="141880681#1_0" length="81.63" pos="0"/>
	<e1Detector file="e1output.xml" freq="30" friendlyPos="x" id="e1det_141880681#1_1" lane="141880681#1_1" length="81.63" pos="0"/>
	<e1Detector file="e1output.xml" freq="30" friendlyPos="x" id="e1det_141880681#1_2" lane="141880681#1_2" length="81.63" pos="0"/>
	<e1Detector file="e1output.xml" freq="30" friendlyPos="x" id="e1det_151380683#17_0" lane="151380683#17_0" length="79.3" pos="0"/>
	<e1Detector file="e1output.xml" freq="30" friendlyPos="x" id="e1det_151380683#17_1" lane="151380683#17_1" length="79.3" pos="0"/>
	<e1Detector file="e1output.xml" freq="30" friendlyPos="x" id="e1det_91312497#0_0" lane="91312497#0_0" length="26.76" pos="1.4155343564e-15"/>
	<e1Detector file="e1output.xml" freq="30" friendlyPos="x" id="e1det_141844770#1_0" lane="141844770#1_0" length="61.02" pos="1.4155343564e-15"/>
	<e1Detector file="e1output.xml" freq="30" friendlyPos="x" id="e1det_141844770#1_1" lane="141844770#1_1" length="61.02" pos="1.4155343564e-15"/>
	<e1Detector file="e1output.xml" freq="30" friendlyPos="x" id="e1det_141844770#1_3" lane="141844770#1_3" length="61.02" pos="1.4155343564e-15"/>
	<e1Detector file="e1output.xml" freq="30" friendlyPos="x" id="e1det_201272993#4_0" lane="201272993#4_0" length="67.4" pos="0"/>
	<e1Detector file="e1output.xml" freq="30" friendlyPos="x" id="e1det_201272993#4_1" lane="201272993#4_1" length="67.4" pos="0"/>
	<e1Detector file="e1output.xml" freq="30" friendlyPos="x" id="e1det_141844776#0_0" lane="141844776#0_0" length="74.07" pos="0"/>
	<e1Detector file="e1output.xml" freq="30" friendlyPos="x" id="e1det_141844776#0_1" lane="141844776#0_1" length="74.07" pos="0"/>
	<e1Detector file="e1output.xml" freq="30" friendlyPos="x" id="e1det_201272993#2_0" lane="201272993#2_0" length="79.66" pos="0"/>
	<e1Detector file="e1output.xml" freq="30" friendlyPos="x" id="e1det_201272993#2_1" lane="201272993#2_1" length="79.66" pos="0"/>
	<e1Detector file="e1output.xml" freq="30" friendlyPos="x" id="e1det_89760165#4_0" lane="89760165#4_0" length="60.86" pos="1.4155343564e-15"/>
	<e1Detector file="e1output.xml" freq="30" friendlyPos="x" id="e1det_141844777#2_0" lane="141844777#2_0" length="95.3" pos="0"/>
	<e1Detector file="e1output.xml" freq="30" friendlyPos="x" id="e1det_89905636#4_1" lane="89905636#4_1" length="78.44" pos="0"/>
	<e1Detector file="e1output.xml" freq="30" friendlyPos="x" id="e1det_89905636#4_2" lane="89905636#4_2" length="78.44" pos="0"/>
	<e1Detector file="e1output.xml" freq="30" friendlyPos="x" id="e1det_141844777#5_0" lane="141844777#5_0" length="94.51" pos="0"/>
	<e1Detector file="e1output.xml" freq="30" friendlyPos="x" id="e1det_141844777#5_1" lane="141844777#5_1" length="94.51" pos="0"/>
	<e1Detector file="e1output.xml" freq="30" friendlyPos="x" id="e1det_161487673#9_0" lane="161487673#9_0" length="79.65" pos="0"/>
	<e1Detector file="e1output.xml" freq="30" friendlyPos="x" id="e1det_161487673#9_1" lane="161487673#9_1" length="79.65" pos="0"/>
	<e1Detector file="e1output.xml" freq="30" friendlyPos="x" id="e1det_141844793#14_0" lane="141844793#14_0" length="67.95" pos="0"/>
	<e1Detector file="e1output.xml" freq="30" friendlyPos="x" id="e1det_141844793#14_1" lane="141844793#14_1" length="67.95" pos="0"/>
	<e1Detector file="e1output.xml" freq="30" friendlyPos="x" id="e1det_141880681#10_0" lane="141880681#10_0" length="22.39" pos="1.4155343564e-15"/>
	<e1Detector file="e1output.xml" freq="30" friendlyPos="x" id="e1det_141880681#10_1" lane="141880681#10_1" length="22.39" pos="1.4155343564e-15"/>
	<e1Detector file="e1output.xml" freq="30" friendlyPos="x" id="e1det_151380683#27_0" lane="151380683#27_0" length="29.1" pos="1.4155343564e-15"/>
	<e1Detector file="e1output.xml" freq="30" friendlyPos="x" id="e1det_151380683#27_1" lane="151380683#27_1" length="29.1" pos="1.4155343564e-15"/>
	<e1Detector file="e1output.xml" freq="30" friendlyPos="x" id="e1det_141844793#6_0" lane="141844793#6_0" length="29.38" pos="1.4155343564e-15"/>
	<e1Detector file="e1output.xml" freq="30" friendlyPos="x" id="e1det_141844793#6_1" lane="141844793#6_1" length="29.38" pos="1.4155343564e-15"/>
	<e1Detector file="e1output.xml" freq="30" friendlyPos="x" id="e1det_141844793#8_0" lane="141844793#8_0" length="105.67" pos="0"/>
	<e1Detector file="e1output.xml" freq="30" friendlyPos="x" id="e1det_141844793#8_1" lane="141844793#8_1" length="105.67" pos="0"/>
	<e1Detector file="e1output.xml" freq="30" friendlyPos="x" id="e1det_89756026#6_0" lane="89756026#6_0" length="63.9" pos="1.4155343564e-15"/>
	<e1Detector file="e1output.xml" freq="30" friendlyPos="x" id="e1det_89756026#6_1" lane="89756026#6_1" length="63.9" pos="1.4155343564e-15"/>
	<e1Detector file="e1output.xml" freq="30" friendlyPos="x" id="e1det_141880671#1_0" lane="141880671#1_0" length="8.59" pos="0"/>
	<e1Detector file="e1output.xml" freq="30" friendlyPos="x" id="e1det_151375678#0_0" lane="151375678#0_0" length="59.14" pos="1.4155343564e-15"/>
	<e1Detector file="e1output.xml" freq="30" friendlyPos="x" id="e1det_151375678#0_1" lane="151375678#0_1" length="59.14" pos="1.4155343564e-15"/>
	<e1Detector file="e1output.xml" freq="30" friendlyPos="x" id="e1det_141880681#3_0" lane="141880681#3_0" length="145.15" pos="0"/>
	<e1Detector file="e1output.xml" freq="30" friendlyPos="x" id="e1det_141880681#3_1" lane="141880681#3_1" length="145.15" pos="0"/>
	<e1Detector file="e1output.xml" freq="30" friendlyPos="x" id="e1det_151380683#21_0" lane="151380683#21_0" length="70.85" pos="0"/>
	<e1Detector file="e1output.xml" freq="30" friendlyPos="x" id="e1det_151380683#21_1" lane="151380683#21_1" length="70.85" pos="0"/>
	<e1Detector file="e1output.xml" freq="30" friendlyPos="x" id="e1det_46249914#4_0" lane="46249914#4_0" length="44.76" pos="1.4155343564e-15"/>
	<e1Detector file="e1output.xml" freq="30" friendlyPos="x" id="e1det_141880681#5_0" lane="141880681#5_0" length="56.01" pos="1.4155343564e-15"/>
	<e1Detector file="e1output.xml" freq="30" friendlyPos="x" id="e1det_141880681#5_1" lane="141880681#5_1" length="56.01" pos="1.4155343564e-15"/>
	<e1Detector file="e1output.xml" freq="30" friendlyPos="x" id="e1det_151380683#23_0" lane="151380683#23_0" length="137.54" pos="0"/>
	<e1Detector file="e1output.xml" freq="30" friendlyPos="x" id="e1det_151380683#23_1" lane="151380683#23_1" length="137.54" pos="0"/>
	<e1Detector file="e1output.xml" freq="30" friendlyPos="x" id="e1det_91312473#7_0" lane="91312473#7_0" length="49.64" pos="1.4155343564e-15"/>
	<e1Detector file="e1output.xml" freq="30" friendlyPos="x" id="e1det_91312473#7_1" lane="91312473#7_1" length="49.64" pos="1.4155343564e-15"/>
	<e1Detector file="e1output.xml" freq="30" friendlyPos="x" id="e1det_91312473#7_2" lane="91312473#7_2" length="49.64" pos="1.4155343564e-15"/>
	<e1Detector file="e1output.xml" freq="30" friendlyPos="x" id="e1det_141880681#8_0" lane="141880681#8_0" length="88.08" pos="0"/>
	<e1Detector file="e1output.xml" freq="30" friendlyPos="x" id="e1det_141880681#8_1" lane="141880681#8_1" length="88.08" pos="0"/>
	<e1Detector file="e1output.xml" freq="30" friendlyPos="x" id="e1det_147495751#3_0" lane="147495751#3_0" length="4.31" pos="0"/>
	<e1Detector file="e1output.xml" freq="30" friendlyPos="x" id="e1det_147495751#3_1" lane="147495751#3_1" length="4.31" pos="0"/>
	<e1Detector file="e1output.xml" freq="30" friendlyPos="x" id="e1det_151380683#25_0" lane="151380683#25_0" length="28.39" pos="1.4155343564e-15"/>
	<e1Detector file="e1output.xml" freq="30" friendlyPos="x" id="e1det_151380683#25_1" lane="151380683#25_1" length="28.39" pos="1.4155343564e-15"/>
	<e1Detector file="e1output.xml" freq="30" friendlyPos="x" id="e1det_147495752#1_0" lane="147495752#1_0" length="8.88" pos="0"/>
	<e1Detector file="e1output.xml" freq="30" friendlyPos="x" id="e1det_147495752#1_1" lane="147495752#1_1" length="8.88" pos="0"/>
	<e1Detector file="e1output.xml" freq="30" friendlyPos="x" id="e1det_147593401#2_0" lane="147593401#2_0" length="63.41" pos="1.4155343564e-15"/>
	<e1Detector file="e1output.xml" freq="30" friendlyPos="x" id="e1det_147593401#2_1" lane="147593401#2_1" length="63.41" pos="1.4155343564e-15"/>
	<e1Detector file="e1output.xml" freq="30" friendlyPos="x" id="e1det_166703472#0_0" lane="166703472#0_0" length="65.89" pos="0"/>
	<e1Detector file="e1output.xml" freq="30" friendlyPos="x" id="e1det_147935464#0_0" lane="147935464#0_0" length="71.98" pos="0"/>
	<e1Detector file="e1output.xml" freq="30" friendlyPos="x" id="e1det_147935464#0_1" lane="147935464#0_1" length="71.98" pos="0"/>
	<e1Detector file="e1output.xml" freq="30" friendlyPos="x" id="e1det_151380683#14_0" lane="151380683#14_0" length="26.84" pos="1.4155343564e-15"/>
	<e1Detector file="e1output.xml" freq="30" friendlyPos="x" id="e1det_151380683#14_1" lane="151380683#14_1" length="26.84" pos="1.4155343564e-15"/>
	<e1Detector file="e1output.xml" freq="30" friendlyPos="x" id="e1det_147935481#2_0" lane="147935481#2_0" length="3.69" pos="8.32667268469e-17"/>
	<e1Detector file="e1output.xml" freq="30" friendlyPos="x" id="e1det_147935481#2_1" lane="147935481#2_1" length="3.69" pos="8.32667268469e-17"/>
	<e1Detector file="e1output.xml" freq="30" friendlyPos="x" id="e1det_151380683#12_0" lane="151380683#12_0" length="2.12" pos="8.32667268469e-17"/>
	<e1Detector file="e1output.xml" freq="30" friendlyPos="x" id="e1det_151380683#12_1" lane="151380683#12_1" length="2.12" pos="8.32667268469e-17"/>
	<e1Detector file="e1output.xml" freq="30" friendlyPos="x" id="e1det_151380695_0" lane="151380695_0" length="2.18" pos="8.32667268469e-17"/>
	<e1Detector file="e1output.xml" freq="30" friendlyPos="x" id="e1det_151380695_1" lane="151380695_1" length="2.18" pos="8.32667268469e-17"/>
	<e1Detector file="e1output.xml" freq="30" friendlyPos="x" id="e1det_90064603#7_0" lane="90064603#7_0" length="60.78" pos="1.4155343564e-15"/>
	<e1Detector file="e1output.xml" freq="30" friendlyPos="x" id="e1det_90064603#7_1" lane="90064603#7_1" length="60.78" pos="1.4155343564e-15"/>
	<e1Detector file="e1output.xml" freq="30" friendlyPos="x" id="e1det_147935481#5_0" lane="147935481#5_0" length="39.74" pos="1.4155343564e-15"/>
	<e1Detector file="e1output.xml" freq="30" friendlyPos="x" id="e1det_147935481#5_1" lane="147935481#5_1" length="39.74" pos="1.4155343564e-15"/>
	<e1Detector file="e1output.xml" freq="30" friendlyPos="x" id="e1det_151380683#9_0" lane="151380683#9_0" length="228.37" pos="0"/>
	<e1Detector file="e1output.xml" freq="30" friendlyPos="x" id="e1det_151380683#9_1" lane="151380683#9_1" length="228.37" pos="0"/>
	<e1Detector file="e1output.xml" freq="30" friendlyPos="x" id="e1det_91312493#4_0" lane="91312493#4_0" length="48.63" pos="1.4155343564e-15"/>
	<e1Detector file="e1output.xml" freq="30" friendlyPos="x" id="e1det_91312493#4_1" lane="91312493#4_1" length="48.63" pos="1.4155343564e-15"/>
	<e1Detector file="e1output.xml" freq="30" friendlyPos="x" id="e1det_147935481#8_0" lane="147935481#8_0" length="63.05" pos="1.4155343564e-15"/>
	<e1Detector file="e1output.xml" freq="30" friendlyPos="x" id="e1det_147935481#8_1" lane="147935481#8_1" length="63.05" pos="1.4155343564e-15"/>
	<e1Detector file="e1output.xml" freq="30" friendlyPos="x" id="e1det_147935481#8_2" lane="147935481#8_2" length="63.05" pos="1.4155343564e-15"/>
	<e1Detector file="e1output.xml" freq="30" friendlyPos="x" id="e1det_147935481#8_3" lane="147935481#8_3" length="63.05" pos="1.4155343564e-15"/>
	<e1Detector file="e1output.xml" freq="30" friendlyPos="x" id="e1det_147935513#1_0" lane="147935513#1_0" length="91.78" pos="0"/>
	<e1Detector file="e1output.xml" freq="30" friendlyPos="x" id="e1det_147935513#1_1" lane="147935513#1_1" length="91.78" pos="0"/>
	<e1Detector file="e1output.xml" freq="30" friendlyPos="x" id="e1det_159116087#8_0" lane="159116087#8_0" length="236.18" pos="0"/>
	<e1Detector file="e1output.xml" freq="30" friendlyPos="x" id="e1det_159116087#8_1" lane="159116087#8_1" length="236.18" pos="0"/>
	<e1Detector file="e1output.xml" freq="30" friendlyPos="x" id="e1det_159116088#7_0" lane="159116088#7_0" length="44.35" pos="1.4155343564e-15"/>
	<e1Detector file="e1output.xml" freq="30" friendlyPos="x" id="e1det_159116088#7_1" lane="159116088#7_1" length="44.35" pos="1.4155343564e-15"/>
	<e1Detector file="e1output.xml" freq="30" friendlyPos="x" id="e1det_147935513#4-AddedOffRampEdge_0" lane="147935513#4-AddedOffRampEdge_0" length="94.57" pos="0"/>
	<e1Detector file="e1output.xml" freq="30" friendlyPos="x" id="e1det_147935513#4-AddedOffRampEdge_1" lane="147935513#4-AddedOffRampEdge_1" length="94.57" pos="0"/>
	<e1Detector file="e1output.xml" freq="30" friendlyPos="x" id="e1det_147935513#4-AddedOffRampEdge_2" lane="147935513#4-AddedOffRampEdge_2" length="94.57" pos="0"/>
	<e1Detector file="e1output.xml" freq="30" friendlyPos="x" id="e1det_148394062#3_0" lane="148394062#3_0" length="32.28" pos="1.4155343564e-15"/>
	<e1Detector file="e1output.xml" freq="30" friendlyPos="x" id="e1det_148394062#3_1" lane="148394062#3_1" length="32.28" pos="1.4155343564e-15"/>
	<e1Detector file="e1output.xml" freq="30" friendlyPos="x" id="e1det_148005416#6_0" lane="148005416#6_0" length="91.95" pos="0"/>
	<e1Detector file="e1output.xml" freq="30" friendlyPos="x" id="e1det_148005416#6_1" lane="148005416#6_1" length="91.95" pos="0"/>
	<e1Detector file="e1output.xml" freq="30" friendlyPos="x" id="e1det_151380684#7_0" lane="151380684#7_0" length="14.53" pos="0"/>
	<e1Detector file="e1output.xml" freq="30" friendlyPos="x" id="e1det_151380684#7_1" lane="151380684#7_1" length="14.53" pos="0"/>
	<e1Detector file="e1output.xml" freq="30" friendlyPos="x" id="e1det_151380684#7_2" lane="151380684#7_2" length="14.53" pos="0"/>
	<e1Detector file="e1output.xml" freq="30" friendlyPos="x" id="e1det_151380684#7_3" lane="151380684#7_3" length="14.53" pos="0"/>
	<e1Detector file="e1output.xml" freq="30" friendlyPos="x" id="e1det_148007416#1_0" lane="148007416#1_0" length="81.65" pos="0"/>
	<e1Detector file="e1output.xml" freq="30" friendlyPos="x" id="e1det_151380684#11_0" lane="151380684#11_0" length="88.84" pos="0"/>
	<e1Detector file="e1output.xml" freq="30" friendlyPos="x" id="e1det_151380684#11_1" lane="151380684#11_1" length="88.84" pos="0"/>
	<e1Detector file="e1output.xml" freq="30" friendlyPos="x" id="e1det_151380684#11_2" lane="151380684#11_2" length="88.84" pos="0"/>
	<e1Detector file="e1output.xml" freq="30" friendlyPos="x" id="e1det_151380684#11_3" lane="151380684#11_3" length="88.84" pos="0"/>
	<e1Detector file="e1output.xml" freq="30" friendlyPos="x" id="e1det_148007420#12_0" lane="148007420#12_0" length="126.87" pos="0"/>
	<e1Detector file="e1output.xml" freq="30" friendlyPos="x" id="e1det_151375663#4_0" lane="151375663#4_0" length="105.85" pos="0"/>
	<e1Detector file="e1output.xml" freq="30" friendlyPos="x" id="e1det_148007420#14_0" lane="148007420#14_0" length="124.5" pos="0"/>
	<e1Detector file="e1output.xml" freq="30" friendlyPos="x" id="e1det_151375661#5_0" lane="151375661#5_0" length="106.59" pos="0"/>
	<e1Detector file="e1output.xml" freq="30" friendlyPos="x" id="e1det_148007420#3_0" lane="148007420#3_0" length="37.96" pos="1.4155343564e-15"/>
	<e1Detector file="e1output.xml" freq="30" friendlyPos="x" id="e1det_91312489#3_0" lane="91312489#3_0" length="83.97" pos="0"/>
	<e1Detector file="e1output.xml" freq="30" friendlyPos="x" id="e1det_91312489#3_1" lane="91312489#3_1" length="83.97" pos="0"/>
	<e1Detector file="e1output.xml" freq="30" friendlyPos="x" id="e1det_148007420#7_0" lane="148007420#7_0" length="112.61" pos="0"/>
	<e1Detector file="e1output.xml" freq="30" friendlyPos="x" id="e1det_91312493#0_0" lane="91312493#0_0" length="80.48" pos="0"/>
	<e1Detector file="e1output.xml" freq="30" friendlyPos="x" id="e1det_91312493#0_1" lane="91312493#0_1" length="80.48" pos="0"/>
	<e1Detector file="e1output.xml" freq="30" friendlyPos="x" id="e1det_148007420#9_0" lane="148007420#9_0" length="97.19" pos="0"/>
	<e1Detector file="e1output.xml" freq="30" friendlyPos="x" id="e1det_148641830#2_0" lane="148641830#2_0" length="97.64" pos="0"/>
	<e1Detector file="e1output.xml" freq="30" friendlyPos="x" id="e1det_148641830#2_1" lane="148641830#2_1" length="97.64" pos="0"/>
	<e1Detector file="e1output.xml" freq="30" friendlyPos="x" id="e1det_46178146#3_0" lane="46178146#3_0" length="105.51" pos="0"/>
	<e1Detector file="e1output.xml" freq="30" friendlyPos="x" id="e1det_46178146#3_1" lane="46178146#3_1" length="105.51" pos="0"/>
	<e1Detector file="e1output.xml" freq="30" friendlyPos="x" id="e1det_148394062#1_0" lane="148394062#1_0" length="91.21" pos="0"/>
	<e1Detector file="e1output.xml" freq="30" friendlyPos="x" id="e1det_148394062#1_1" lane="148394062#1_1" length="91.21" pos="0"/>
	<e1Detector file="e1output.xml" freq="30" friendlyPos="x" id="e1det_90064603#3_0" lane="90064603#3_0" length="60.92" pos="1.4155343564e-15"/>
	<e1Detector file="e1output.xml" freq="30" friendlyPos="x" id="e1det_90064603#3_1" lane="90064603#3_1" length="60.92" pos="1.4155343564e-15"/>
	<e1Detector file="e1output.xml" freq="30" friendlyPos="x" id="e1det_90064603#3_2" lane="90064603#3_2" length="60.92" pos="1.4155343564e-15"/>
	<e1Detector file="e1output.xml" freq="30" friendlyPos="x" id="e1det_148641830#0_0" lane="148641830#0_0" length="214.29" pos="0"/>
	<e1Detector file="e1output.xml" freq="30" friendlyPos="x" id="e1det_148641830#0_1" lane="148641830#0_1" length="214.29" pos="0"/>
	<e1Detector file="e1output.xml" freq="30" friendlyPos="x" id="e1det_46178146#4_0" lane="46178146#4_0" length="101.54" pos="0"/>
	<e1Detector file="e1output.xml" freq="30" friendlyPos="x" id="e1det_46178146#4_1" lane="46178146#4_1" length="101.54" pos="0"/>
	<e1Detector file="e1output.xml" freq="30" friendlyPos="x" id="e1det_89773774#1_0" lane="89773774#1_0" length="102.82" pos="0"/>
	<e1Detector file="e1output.xml" freq="30" friendlyPos="x" id="e1det_89773774#1_1" lane="89773774#1_1" length="102.82" pos="0"/>
	<e1Detector file="e1output.xml" freq="30" friendlyPos="x" id="e1det_89773774#1_2" lane="89773774#1_2" length="102.82" pos="0"/>
	<e1Detector file="e1output.xml" freq="30" friendlyPos="x" id="e1det_89773774#1_3" lane="89773774#1_3" length="102.82" pos="0"/>
	<e1Detector file="e1output.xml" freq="30" friendlyPos="x" id="e1det_148641830#4_0" lane="148641830#4_0" length="105.5" pos="0"/>
	<e1Detector file="e1output.xml" freq="30" friendlyPos="x" id="e1det_148641830#4_1" lane="148641830#4_1" length="105.5" pos="0"/>
	<e1Detector file="e1output.xml" freq="30" friendlyPos="x" id="e1det_46178146#1_0" lane="46178146#1_0" length="69.63" pos="0"/>
	<e1Detector file="e1output.xml" freq="30" friendlyPos="x" id="e1det_46178146#1_1" lane="46178146#1_1" length="69.63" pos="0"/>
	<e1Detector file="e1output.xml" freq="30" friendlyPos="x" id="e1det_91312486#5_0" lane="91312486#5_0" length="73.4" pos="0"/>
	<e1Detector file="e1output.xml" freq="30" friendlyPos="x" id="e1det_151375604#1_0" lane="151375604#1_0" length="62.88" pos="1.4155343564e-15"/>
	<e1Detector file="e1output.xml" freq="30" friendlyPos="x" id="e1det_151375604#1_1" lane="151375604#1_1" length="62.88" pos="1.4155343564e-15"/>
	<e1Detector file="e1output.xml" freq="30" friendlyPos="x" id="e1det_89760177#1_0" lane="89760177#1_0" length="57.62" pos="1.4155343564e-15"/>
	<e1Detector file="e1output.xml" freq="30" friendlyPos="x" id="e1det_89760177#1_1" lane="89760177#1_1" length="57.62" pos="1.4155343564e-15"/>
	<e1Detector file="e1output.xml" freq="30" friendlyPos="x" id="e1det_151375604#3_0" lane="151375604#3_0" length="67.54" pos="0"/>
	<e1Detector file="e1output.xml" freq="30" friendlyPos="x" id="e1det_151375604#3_1" lane="151375604#3_1" length="67.54" pos="0"/>
	<e1Detector file="e1output.xml" freq="30" friendlyPos="x" id="e1det_151375648#2_0" lane="151375648#2_0" length="65.57" pos="0"/>
	<e1Detector file="e1output.xml" freq="30" friendlyPos="x" id="e1det_154548820#2_0" lane="154548820#2_0" length="74.91" pos="0"/>
	<e1Detector file="e1output.xml" freq="30" friendlyPos="x" id="e1det_151375648#4_0" lane="151375648#4_0" length="121.05" pos="0"/>
	<e1Detector file="e1output.xml" freq="30" friendlyPos="x" id="e1det_155015126#2_0" lane="155015126#2_0" length="41.51" pos="1.4155343564e-15"/>
	<e1Detector file="e1output.xml" freq="30" friendlyPos="x" id="e1det_155015126#2_1" lane="155015126#2_1" length="41.51" pos="1.4155343564e-15"/>
	<e1Detector file="e1output.xml" freq="30" friendlyPos="x" id="e1det_151375661#6_0" lane="151375661#6_0" length="96.53" pos="0"/>
	<e1Detector file="e1output.xml" freq="30" friendlyPos="x" id="e1det_151380665#9_0" lane="151380665#9_0" length="17.93" pos="1.4155343564e-15"/>
	<e1Detector file="e1output.xml" freq="30" friendlyPos="x" id="e1det_151380665#9_1" lane="151380665#9_1" length="17.93" pos="1.4155343564e-15"/>
	<e1Detector file="e1output.xml" freq="30" friendlyPos="x" id="e1det_151550821#5_0" lane="151550821#5_0" length="49.52" pos="1.4155343564e-15"/>
	<e1Detector file="e1output.xml" freq="30" friendlyPos="x" id="e1det_151550821#5_1" lane="151550821#5_1" length="49.52" pos="1.4155343564e-15"/>
	<e1Detector file="e1output.xml" freq="30" friendlyPos="x" id="e1det_151375663#3_0" lane="151375663#3_0" length="76.73" pos="0"/>
	<e1Detector file="e1output.xml" freq="30" friendlyPos="x" id="e1det_91312486#3_0" lane="91312486#3_0" length="124.27" pos="0"/>
	<e1Detector file="e1output.xml" freq="30" friendlyPos="x" id="e1det_151375663#5_0" lane="151375663#5_0" length="98.61" pos="0"/>
	<e1Detector file="e1output.xml" freq="30" friendlyPos="x" id="e1det_151380665#13_0" lane="151380665#13_0" length="117.99" pos="0"/>
	<e1Detector file="e1output.xml" freq="30" friendlyPos="x" id="e1det_151380665#13_1" lane="151380665#13_1" length="117.99" pos="0"/>
	<e1Detector file="e1output.xml" freq="30" friendlyPos="x" id="e1det_151550821#7_0" lane="151550821#7_0" length="120.61" pos="0"/>
	<e1Detector file="e1output.xml" freq="30" friendlyPos="x" id="e1det_151550821#7_1" lane="151550821#7_1" length="120.61" pos="0"/>
	<e1Detector file="e1output.xml" freq="30" friendlyPos="x" id="e1det_151380684#13_0" lane="151380684#13_0" length="83.23" pos="0"/>
	<e1Detector file="e1output.xml" freq="30" friendlyPos="x" id="e1det_151380684#13_1" lane="151380684#13_1" length="83.23" pos="0"/>
	<e1Detector file="e1output.xml" freq="30" friendlyPos="x" id="e1det_151380684#13_2" lane="151380684#13_2" length="83.23" pos="0"/>
	<e1Detector file="e1output.xml" freq="30" friendlyPos="x" id="e1det_151380684#13_3" lane="151380684#13_3" length="83.23" pos="0"/>
	<e1Detector file="e1output.xml" freq="30" friendlyPos="x" id="e1det_151380684#2_0" lane="151380684#2_0" length="103.06" pos="0"/>
	<e1Detector file="e1output.xml" freq="30" friendlyPos="x" id="e1det_151380684#2_1" lane="151380684#2_1" length="103.06" pos="0"/>
	<e1Detector file="e1output.xml" freq="30" friendlyPos="x" id="e1det_151380684#2_2" lane="151380684#2_2" length="103.06" pos="0"/>
	<e1Detector file="e1output.xml" freq="30" friendlyPos="x" id="e1det_151380684#2_3" lane="151380684#2_3" length="103.06" pos="0"/>
	<e1Detector file="e1output.xml" freq="30" friendlyPos="x" id="e1det_161486224#0_0" lane="161486224#0_0" length="89.89" pos="0"/>
	<e1Detector file="e1output.xml" freq="30" friendlyPos="x" id="e1det_91312501#1_0" lane="91312501#1_0" length="92.22" pos="0"/>
	<e1Detector file="e1output.xml" freq="30" friendlyPos="x" id="e1det_151380684#4_0" lane="151380684#4_0" length="104.11" pos="0"/>
	<e1Detector file="e1output.xml" freq="30" friendlyPos="x" id="e1det_151380684#4_1" lane="151380684#4_1" length="104.11" pos="0"/>
	<e1Detector file="e1output.xml" freq="30" friendlyPos="x" id="e1det_151380684#4_2" lane="151380684#4_2" length="104.11" pos="0"/>
	<e1Detector file="e1output.xml" freq="30" friendlyPos="x" id="e1det_151380684#4_3" lane="151380684#4_3" length="104.11" pos="0"/>
	<e1Detector file="e1output.xml" freq="30" friendlyPos="x" id="e1det_91312489#1_0" lane="91312489#1_0" length="83.25" pos="0"/>
	<e1Detector file="e1output.xml" freq="30" friendlyPos="x" id="e1det_91312489#1_1" lane="91312489#1_1" length="83.25" pos="0"/>
	<e1Detector file="e1output.xml" freq="30" friendlyPos="x" id="e1det_151427300#3_0" lane="151427300#3_0" length="67.81" pos="0"/>
	<e1Detector file="e1output.xml" freq="30" friendlyPos="x" id="e1det_155015126#9_0" lane="155015126#9_0" length="53.73" pos="1.4155343564e-15"/>
	<e1Detector file="e1output.xml" freq="30" friendlyPos="x" id="e1det_155015126#9_1" lane="155015126#9_1" length="53.73" pos="1.4155343564e-15"/>
	<e1Detector file="e1output.xml" freq="30" friendlyPos="x" id="e1det_151550819_0" lane="151550819_0" length="152.52" pos="0"/>
	<e1Detector file="e1output.xml" freq="30" friendlyPos="x" id="e1det_89760469#9_0" lane="89760469#9_0" length="68.56" pos="0"/>
	<e1Detector file="e1output.xml" freq="30" friendlyPos="x" id="e1det_151550825#3_0" lane="151550825#3_0" length="67.05" pos="0"/>
	<e1Detector file="e1output.xml" freq="30" friendlyPos="x" id="e1det_151550825#3_1" lane="151550825#3_1" length="67.05" pos="0"/>
	<e1Detector file="e1output.xml" freq="30" friendlyPos="x" id="e1det_46249915#5_0" lane="46249915#5_0" length="68.91" pos="0"/>
	<e1Detector file="e1output.xml" freq="30" friendlyPos="x" id="e1det_46249915#5_1" lane="46249915#5_1" length="68.91" pos="0"/>
	<e1Detector file="e1output.xml" freq="30" friendlyPos="x" id="e1det_89762710#3_0" lane="89762710#3_0" length="156.94" pos="0"/>
	<e1Detector file="e1output.xml" freq="30" friendlyPos="x" id="e1det_151550825#5_0" lane="151550825#5_0" length="49.11" pos="1.4155343564e-15"/>
	<e1Detector file="e1output.xml" freq="30" friendlyPos="x" id="e1det_151550825#5_1" lane="151550825#5_1" length="49.11" pos="1.4155343564e-15"/>
	<e1Detector file="e1output.xml" freq="30" friendlyPos="x" id="e1det_46249915#6_0" lane="46249915#6_0" length="32.88" pos="1.4155343564e-15"/>
	<e1Detector file="e1output.xml" freq="30" friendlyPos="x" id="e1det_46249915#6_1" lane="46249915#6_1" length="32.88" pos="1.4155343564e-15"/>
	<e1Detector file="e1output.xml" freq="30" friendlyPos="x" id="e1det_46249915#6_2" lane="46249915#6_2" length="32.88" pos="1.4155343564e-15"/>